%mem=360GB
%nprocshared=40
%Chk=/users/psyche/volatile/gaussian/nanohybrid/chk/A1.chk
# wB97XD/Def2SVP Opt
# SCRF=(SMD,Solvent=Water)
# Integral=(Grid=UltraFineGrid)

Geometry optimisation, Mol: A1

0 1
O       -3.6049600000        2.3411400000        8.7526500000
C       -4.5097500000        3.2332000000        9.4268900000
H       -3.9678700000        4.0890500000        9.8522000000
H       -4.9821400000        2.6641800000       10.2334000000
H       -5.2828700000        3.5975700000        8.7360600000
O       -3.0199800000        4.0153300000        7.3384900000
C       -2.8973500000        2.8513800000        7.6982300000
C       -1.9713300000        1.8112700000        7.0611600000
H       -2.5646400000        0.9211220000        6.8079500000
H       -1.2521300000        1.4737900000        7.8217900000
C       -1.2285400000        2.3408300000        5.8137200000
H       -1.9645900000        2.7057100000        5.0867600000
H       -0.6248170000        3.2124400000        6.0970700000
C       -0.3224810000        1.2699300000        5.1577400000
H        0.3393760000        0.8420750000        5.9209400000
H       -0.9373160000        0.4302840000        4.8038100000
C        0.5090670000        1.8058300000        3.9489000000
C       -0.3613440000        2.0809000000        2.7098400000
C       -0.6836080000        1.0324700000        1.8263300000
H       -0.2891910000        0.0317870000        2.0061800000
C       -1.4975100000        1.2618700000        0.7133240000
H       -1.7299000000        0.4405100000        0.0358280000
C       -2.0108600000        2.5402800000        0.4685520000
H       -2.6435300000        2.7189300000       -0.4002420000
C       -1.7099700000        3.5859900000        1.3472300000
H       -2.1106600000        4.5830500000        1.1674800000
C       -0.8950610000        3.3597900000        2.4608000000
H       -0.6728380000        4.1852800000        3.1375000000
C        4.9458200000        0.9995530000        0.7456700000
C        4.6266100000        3.4607900000        0.6518980000
C        8.2807500000        4.6020600000        3.2752700000
C        5.1809300000       -0.6255000000        5.6978000000
C        6.3416900000        5.0606300000        6.2739500000
C        4.0738500000        2.1140000000        0.7106300000
C        6.3398700000        1.4792900000        7.2647500000
C        8.0674900000        2.8615000000        1.5101500000
C        2.8371100000        4.8370500000        4.0870900000
C        4.3471000000        0.2280380000        6.4595700000
C        1.6980400000        2.7341600000        4.2167100000
C        2.9012100000        4.3846000000        5.4683900000
C        4.0476000000        2.4450800000        7.2014500000
C        6.8978900000        2.8264200000        7.2130200000
C        2.6891400000        3.5347100000        2.0007500000
C        8.3868100000        3.8671100000        5.5152900000
C        1.9029500000        1.2111400000        3.7081600000
C        2.6792700000        0.3120830000        4.6300800000
C        7.4977100000        5.0215500000        5.4617200000
C        8.1610800000        0.0960580000        3.8138100000
C        9.0510500000        2.2793400000        3.7198500000
C        8.6444400000        1.9003900000        2.3713000000
C        6.9226100000        2.5052600000        0.6825670000
C        3.5611500000       -0.5130380000        3.8298400000
C        2.2074400000        3.8044300000        3.2921600000
C        6.0254000000        3.6550000000        0.6345060000
C        4.9397200000        1.2944400000        7.2556000000
C        3.7753500000        4.3310000000        1.4522300000
C        4.0065500000        4.7393000000        6.2760700000
C        5.9736800000       -1.0451800000        3.5178000000
C        7.8826800000        4.2345500000        1.9696200000
C        2.3077600000        3.0655600000        5.5510600000
C        6.9876500000        0.2048430000        1.6230000000
C        4.5907900000        3.7514000000        7.1624600000
C        3.8779300000        5.6325500000        3.5544300000
C        8.2766100000        1.4142300000        5.9191900000
C        7.1969100000        0.6058510000        6.4701100000
C        5.0208300000        5.9937600000        4.3855400000
C        4.7802400000       -1.0007600000        4.3554700000
C        3.0847300000        0.7055870000        5.9172300000
C        7.1167200000       -0.6908660000        4.3498600000
C        2.5752400000        1.0554300000        2.3716300000
C        5.8009600000        5.5737500000        2.1996100000
C        2.8960600000        2.0978700000        6.3832700000
C        5.0842700000        5.5537600000        5.7253800000
C        5.9104400000       -0.6051050000        2.1781700000
C        7.4321600000        5.4762000000        4.0764600000
C        6.3905500000        1.1978300000        0.7361040000
C        8.8722400000        3.6084200000        4.1643100000
C        4.3562900000        5.3760400000        2.2098100000
C        6.2126500000        5.9560500000        3.5466000000
C        2.8759600000        2.1430500000        1.5349700000
C        3.4961100000       -0.0594490000        2.4486700000
C        8.7505100000        1.1646800000        4.6112000000
C        6.6235000000        4.7256300000        1.4251400000
C        6.0360900000        3.9447800000        7.1632200000
C        6.6259100000       -0.4311660000        5.6993300000
C        8.0917100000        2.7873700000        6.3785500000
C        4.6514800000       -0.1081150000        1.6341800000
C        8.0956700000        0.5511520000        2.4289600000

