%mem=360GB
%nprocshared=40
%Chk=/users/psyche/volatile/gaussian/nanohybrid/chk/A2.chk
# wB97XD/Def2SVP Opt
# SCRF=(SMD,Solvent=Water)
# Integral=(Grid=UltraFineGrid)

Geometry optimisation, Mol: A2

0 1
C        6.1735900000       15.8834000000       15.4573000000
C        7.3005000000       16.9617000000       14.9920000000
C        7.3260800000       15.8087000000       17.7357000000
C        6.3494500000       15.3287000000       16.8424000000
C        6.0648900000       13.9099000000       16.8089000000
C        6.6856000000       13.0217000000       17.7225000000
C        7.6634600000       13.5266000000       18.6578000000
C        7.9864700000       14.8975000000       18.6528000000
C        5.8788400000       13.5071000000       15.4262000000
C        6.0481100000       14.6691000000       14.5814000000
C        6.7360100000       14.5354000000       13.3615000000
C        7.7509700000       15.5152000000       12.9457000000
C        8.0645800000       16.6137000000       13.7538000000
C        9.4503500000       16.9748000000       13.9439000000
C        9.6342000000       17.3759000000       15.3130000000
C       10.8862000000       17.1778000000       15.9836000000
C       10.8619000000       16.7066000000       17.3733000000
C        9.5868300000       16.4625000000       17.9813000000
C        8.3393000000       16.7875000000       17.3095000000
C        8.3642600000       17.2745000000       15.9971000000
C        9.3694800000       15.3076000000       18.8121000000
C        7.1490400000       11.7175000000       17.2768000000
C        6.9688300000       11.3278000000       15.9385000000
C        6.3188100000       12.2286000000       15.0005000000
C        6.9994800000       12.0931000000       13.7341000000
C        7.2148700000       13.2331000000       12.9354000000
C        8.4849800000       13.3969000000       12.2516000000
C        8.8162700000       14.7976000000       12.2652000000
C       10.1803000000       15.2343000000       12.3198000000
C       10.5106000000       16.3647000000       13.1959000000
C       11.8157000000       16.4313000000       13.7811000000
C       12.0005000000       16.8309000000       15.1531000000
C       13.1418000000       16.1041000000       15.6827000000
C       13.1178000000       15.6467000000       17.0132000000
C       11.9549000000       15.9084000000       17.8464000000
C       11.7339000000       14.7532000000       18.6778000000
C       10.4124000000       14.3559000000       19.0645000000
C       10.0755000000       12.9195000000       19.0562000000
C        8.7190300000       12.5347000000       18.8056000000
C        8.4002100000       11.4173000000       17.9541000000
C        9.4287700000       10.6453000000       17.3188000000
C        9.2393200000       10.2359000000       15.9134000000
C        8.0344700000       10.6268000000       15.2403000000
C        8.0551100000       11.1006000000       13.8801000000
C        9.2784100000       11.1972000000       13.1414000000
C        9.4995800000       12.3847000000       12.2941000000
C       10.8440000000       12.8309000000       12.0760000000
C       11.9842000000       12.0934000000       12.5980000000
C       11.7726000000       10.9666000000       13.4124000000
C       10.4150000000       10.5453000000       13.7230000000
C       11.1788000000       14.2317000000       12.0885000000
C       12.5256000000       14.3675000000       12.6200000000
C       12.8419000000       15.4554000000       13.4547000000
C       13.6756000000       15.2536000000       14.6297000000
C       14.1690000000       13.9654000000       14.9382000000
C       13.8441000000       12.8386000000       14.0715000000
C       13.0362000000       13.0416000000       12.9282000000
C       14.1468000000       13.4925000000       16.3174000000
C       13.6305000000       14.3253000000       17.3377000000
C       12.7616000000       13.7721000000       18.3640000000
C       12.4379000000       12.4038000000       18.3483000000
C       11.0791000000       11.9798000000       18.6499000000
C       10.7615000000       10.8639000000       17.7965000000
C       11.9231000000       10.5956000000       16.9602000000
C       11.7426000000       10.2059000000       15.6217000000
C       12.6041000000       10.7475000000       14.5839000000
C       13.6252000000       11.6702000000       14.9151000000
C       13.8121000000       12.0739000000       16.3018000000
C       12.9712000000       11.5405000000       17.3078000000
C       10.3958000000       10.0737000000       15.0838000000
C        5.8110900000       17.3188000000       15.0677000000
C        5.0500100000       17.5173000000       13.7446000000
C        3.8143200000       16.8742000000       13.5381000000
H        3.4117500000       16.2127000000       14.3062000000
C        3.1005700000       17.0657000000       12.3515000000
H        2.1495900000       16.5544000000       12.2051000000
C        3.6035900000       17.9099000000       11.3557000000
H        3.0480500000       18.0564000000       10.4301000000
C        4.8220300000       18.5666000000       11.5564000000
H        5.2169800000       19.2310000000       10.7887000000
C        5.5390200000       18.3757000000       12.7413000000
H        6.4861300000       18.8974000000       12.8822000000
C        5.3195700000       18.2827000000       16.1940000000
H        4.2253300000       18.1990000000       16.2583000000
H        5.6932600000       17.9541000000       17.1716000000
C        5.7168600000       19.7625000000       15.9699000000
H        5.2693700000       20.1343000000       15.0399000000
H        6.8032000000       19.8376000000       15.8344000000
C        5.2846700000       20.6790000000       17.1368000000
H        5.7613800000       20.3571000000       18.0744000000
H        4.2038100000       20.5918000000       17.3165000000
C        5.6239600000       22.1542000000       16.9039000000
O        6.2782400000       22.5990000000       15.9693000000
O        5.1097900000       22.9653000000       17.8786000000
C        5.3664800000       24.3755000000       17.7597000000
H        6.4459500000       24.5781000000       17.7847000000
H        4.9429100000       24.7702000000       16.8260000000
H        4.8845000000       24.8639000000       18.6122000000

