%mem=360GB
%nprocshared=40
%Chk=/users/psyche/volatile/gaussian/nanohybrid/chk/A4.chk
# wB97XD/Def2SVP Opt
# SCRF=(SMD,Solvent=Water)
# Integral=(Grid=UltraFineGrid)

Geometry optimisation, Mol: A4

0 1
C        0.2840620000       -3.7734800000        0.8870170000
C       -9.2847900000       -6.3538400000        2.1531100000
C       -9.1994000000       -6.9650900000        3.4280000000
C        1.2383400000       -5.2257400000       -0.6995780000
N       -9.3252800000       -5.9281900000       -1.6803900000
H        1.6796700000       -5.4868800000       -1.6580100000
C        1.0419900000       -6.1328500000        0.3148880000
N        5.0971900000        6.3025400000        0.9298510000
H        0.8816980000       -3.0730600000       -1.0861000000
C        0.8032490000       -3.8971400000       -0.3816360000
C       -0.0320290000       -1.2135400000        0.7699690000
C        1.2377700000        0.6128560000       -0.1391900000
C        0.0532560000        1.1862900000       -0.6838130000
C       -1.1843600000        0.5637580000       -0.5090520000
C       -1.2166800000       -0.6395140000        0.2264170000
H        1.8074300000       -1.9749900000        7.3164200000
H       -0.5711480000       -1.6158700000        6.2618700000
N       -5.1798500000       -6.3256800000       -0.6902370000
C       -4.2117800000       -3.0120900000        1.2380600000
C       -2.3276400000       -1.5019000000        0.5879050000
C       -6.2426900000       -6.2097100000       -0.2494130000
S       -3.1277100000       -4.9077600000        2.6603400000
O       -7.2988600000       -7.6337900000        4.8073400000
C       -4.8903900000       -4.9505900000        2.3618900000
S       -4.0706500000       -1.5125400000        0.3063470000
C       -5.2926500000       -3.8520000000        1.5914400000
C       -0.0787600000       -1.9036500000        5.3364300000
H        0.4842940000       -8.2120300000        0.4665760000
C        1.2570700000       -2.2192400000        5.2563600000
H        2.0729200000       -7.8478700000        1.1260000000
C       -7.7586900000       -7.1105600000        3.8017000000
H        1.8350800000       -7.8935400000       -0.6211720000
C        1.3759400000       -7.5956900000        0.3217960000
H       -1.8299600000       -1.7674200000        3.9855200000
C       -2.9577600000       -3.4420900000        1.7203800000
C       -1.8900000000       -2.5781600000        1.3495200000
C      -10.3498000000       -7.2887600000        4.1595400000
C       -7.9136500000       -6.1700600000        1.5998400000
H       -6.3270800000       -3.6469400000        1.3279400000
C      -10.5479000000       -6.0338600000        1.6238000000
C      -11.6019000000       -6.9837100000        3.6120300000
C      -11.6939000000       -6.3530600000        2.3632000000
C       -8.5790900000       -6.0121300000       -0.8006330000
H        2.7386500000       -3.2134100000        6.4734100000
H        3.0754300000       -1.5131800000        6.1808400000
N        9.2281200000        5.9350000000        1.9932700000
C        1.2056000000       -0.5915140000        0.5946520000
H       -2.1010500000        0.9923870000       -0.9136480000
H        2.1215000000       -1.0194500000        1.0016300000
C       -0.3597970000       -2.5279300000        1.5438200000
S        0.3057210000       -5.3418800000        1.7097900000
S        1.6890200000       -2.6370000000        3.5969600000
C        2.2705700000       -2.2312600000        6.3631100000
C       -7.5936300000       -6.1041600000        0.2506060000
C        0.0289370000       -2.3832700000        3.0343800000
C       -0.7704520000       -1.9904900000        4.0835200000
H      -10.2654000000       -7.7651000000        5.1353500000
H      -12.5101000000       -7.2274100000        4.1621700000
C       -5.6886500000       -5.9750100000        2.9847900000
C       -6.9744500000       -6.4041400000        2.7163000000
H       -5.2374100000       -6.4428700000        3.8667400000
C        0.3795810000        2.5064700000       -1.4484600000
H      -12.6745000000       -6.1047500000        1.9581400000
H      -10.6543000000       -5.5263400000        0.6678200000
C        1.9076400000        2.5658100000       -1.2395900000
C        2.3464200000        1.4835400000       -0.4872790000
C        2.9706400000        3.4473600000       -1.5819500000
C        4.2226800000        3.0229800000       -1.0897200000
S        4.0857000000        1.5069400000       -0.1846020000
S        3.1361600000        4.9345700000       -2.4885900000
C        4.8931400000        4.9939800000       -2.1607000000
C        5.2979100000        3.8837200000       -1.4087200000
C       -0.2773120000        3.7449900000       -0.7914120000
C        0.0060500000        2.3683900000       -2.9434300000
C        5.6872300000        6.0451900000       -2.7434800000
C        6.9600300000        6.4879400000       -2.4376000000
C        0.8267930000        2.0233700000       -3.9932700000
C        0.1478210000        1.9339500000       -5.2528100000
C       -1.1992400000        2.2000100000       -5.1777000000
S       -1.6583900000        2.5719300000       -3.5145800000
S       -0.3319630000        5.3080100000       -1.6217500000
C       -1.0607600000        6.0959300000       -0.2211390000
C       -1.2295100000        5.1918500000        0.8009760000
C       -0.7802810000        3.8677800000        0.4837230000
C        7.7560500000        7.2321400000       -3.4888900000
C        9.1906200000        7.0989800000       -3.0881100000
C        9.2587800000        6.4573600000       -1.8268900000
C        7.8792100000        6.2404700000       -1.3072800000
C       -1.4085500000        7.5556300000       -0.2287450000
C       -2.2054100000        2.1859900000       -6.2911600000
O        7.3096100000        7.7725100000       -4.4916100000
C        7.5321600000        6.1369600000        0.0330680000
C       10.3509000000        7.4572200000       -3.7872600000
C       11.5959000000        7.1572300000       -3.2212200000
C       11.6715000000        6.4969000000       -1.9864200000
C       10.5154000000        6.1423000000       -1.2795700000
C        6.1699800000        6.2111400000        0.5077290000
C        8.4975500000        6.0320400000        1.1016700000
H        6.3307100000        3.6863700000       -1.1331100000
H        5.2463400000        6.5271600000       -3.6231500000
H        1.8930300000        1.8366200000       -3.8909900000
H        0.6569930000        1.6814900000       -6.1795100000
H       -1.6616500000        5.4516200000        1.7640000000
H       -0.8382480000        3.0456500000        1.1922100000
H       -1.9158600000        7.8389400000        0.6940620000
H       -0.5152350000        8.1806900000       -0.3210950000
H       -2.0659700000        7.8128200000       -1.0639400000
H       -2.9357700000        1.3808800000       -6.1628100000
H       -2.7687100000        3.1216600000       -6.3431200000
H       -1.7165600000        2.0370100000       -7.2545600000
H       10.2793000000        7.9559300000       -4.7531000000
H       12.5117000000        7.4274000000       -3.7460900000
H       12.6472000000        6.2530600000       -1.5671100000
H       10.6100000000        5.6112300000       -0.3351310000

