%mem=360GB
%nprocshared=40
%Chk=/users/psyche/volatile/gaussian/nanohybrid/chk/A5.chk
# wB97XD/Def2SVP Opt
# SCRF=(SMD,Solvent=Water)
# Integral=(Grid=UltraFineGrid)

Geometry optimisation, Mol: A5

0 1
C       -0.5416720000       -0.2593450000       -1.2797000000
C      -13.6456000000       -0.3529260000       -3.3946200000
H       -7.3099600000       -0.2729860000       -1.3056500000
O       -9.9621100000       -0.5650280000       -5.9674400000
C       -6.5224600000       -0.7425670000       -3.3045600000
N      -10.4811000000       -3.5313800000        0.3653880000
S       -4.8933500000       -0.8230890000       -4.0360700000
C        1.3539800000        0.0283000000        0.1723890000
C       -2.7664300000       -0.0575790000       -0.6558450000
C       -1.3992100000        0.0238190000       -0.1777160000
C       -0.8904490000        0.3090310000        1.1066500000
C       -5.1085200000       -0.2747780000       -1.4985800000
N       -6.8410600000       -3.7473600000       -1.8664700000
C        0.4961310000        0.2999010000        1.2770500000
C       -7.8577600000       -3.2020000000       -1.7859000000
S       -4.3694200000        0.0897490000        0.0683380000
C       -6.4413300000       -0.4232010000       -1.9420700000
C      -10.0925000000       -0.8333610000       -4.7817200000
C       -4.1325100000       -0.4797400000       -2.4979200000
C       -2.7996100000       -0.3501740000       -2.0144900000
C      -12.6386000000       -0.3599040000       -4.3665900000
C       -9.6558000000       -1.6631900000       -2.5742900000
C      -12.0956000000       -1.1979200000       -1.6823200000
C      -13.3693000000       -0.7576640000       -2.0660100000
C       -9.9190400000       -3.0969900000       -0.5477870000
N        6.9106100000        3.6309700000        1.8858400000
C        0.8454610000       -0.2495940000       -1.1138300000
H       -1.5677400000        0.5142940000        1.9348700000
H        1.5224900000       -0.4619230000       -1.9406700000
C       -1.3709200000       -0.5240020000       -2.5741900000
C       -9.1582600000       -2.5855900000       -1.6629600000
H      -12.8400000000       -0.0385230000       -5.3865700000
C       -7.6824300000       -0.9093380000       -4.1388800000
N       10.5549000000        3.2709100000       -0.3194380000
C      -11.0784000000       -1.2252600000       -2.6600400000
C      -11.3581000000       -0.7927250000       -3.9797300000
C       -8.9958100000       -1.1959400000       -3.8102100000
H       -7.5233100000       -0.7094860000       -5.2044400000
C        1.3255300000        0.5855610000        2.5666900000
C       -1.1336600000       -6.0888300000       -4.6085800000
H      -11.9242000000       -1.4819900000       -0.6473970000
C        2.7539600000        0.4232190000        2.0050200000
C        2.7209300000        0.0992340000        0.6536020000
C        4.0852700000        0.4801090000        2.5061200000
C        5.0618600000        0.2231930000        1.5195100000
S        4.3235600000       -0.1265000000       -0.0513680000
S        4.8434500000        0.8235110000        4.0452700000
C        6.4750300000        0.6595440000        3.3340600000
C        6.3950200000        0.3243880000        1.9752600000
C        7.6327300000        0.7843710000        4.1789700000
C        8.9591500000        1.0163100000        3.8596500000
C       10.0337000000        0.6140380000        4.8401200000
C       11.3028000000        0.5234530000        4.0478500000
C       11.0496000000        0.9625630000        2.7250900000
C        9.6451000000        1.4529100000        2.6269500000
O        9.8843600000        0.3529970000        6.0251100000
C        9.1871600000        2.3873400000        1.7068300000
C       12.5630000000        0.0433000000        4.4455900000
C       13.5763000000       -0.0044910000        3.4812000000
C       13.3258000000        0.4075610000        2.1497700000
C       12.0724000000        0.8942700000        1.7552600000
C        9.9724000000        2.8634700000        0.5929740000
C        7.9081800000        3.0496900000        1.8160800000
H        7.2634000000        0.1281000000        1.3511700000
H        7.4561000000        0.5961900000        5.2438900000
H       12.7444000000       -0.2832430000        5.4676200000
H       11.9200000000        1.1824000000        0.7186950000
F      -14.3510000000       -0.7105640000       -1.1544100000
F      -14.8845000000        0.0534910000       -3.7122600000
F       14.3120000000        0.3211640000        1.2457600000
F       14.7963000000       -0.4573430000        3.8090800000
C        1.1212700000       -0.4794470000        3.6988600000
C        1.5604400000       -0.2140590000        5.0111500000
C        1.4393500000       -1.1725100000        6.0202400000
C        0.8819230000       -2.4372300000        5.7567500000
C        0.4613160000       -2.7096300000        4.4424000000
C        0.5833810000       -1.7524200000        3.4311200000
H        1.9941000000        0.7552920000        5.2593100000
H        1.7844500000       -0.9270500000        7.0247800000
H        0.0322990000       -3.6819400000        4.1991400000
H        0.2527390000       -2.0125900000        2.4256500000
C        1.0152300000        2.0405200000        3.0595700000
C       -0.1220970000        2.3021000000        3.8499600000
C       -0.4288240000        3.6003100000        4.2643500000
C        0.3840530000        4.6899000000        3.9007700000
C        1.5094700000        4.4315500000        3.0985600000
C        1.8175800000        3.1332000000        2.6818100000
H       -0.7755480000        1.4859800000        4.1597500000
H       -1.3130100000        3.7620700000        4.8812500000
H        2.1602900000        5.2504000000        2.7920300000
H        2.6966400000        2.9845000000        2.0558000000
C       -0.9846180000        0.5463040000       -3.6499300000
C        0.1554640000        0.3714870000       -4.4600700000
C        0.5366050000        1.3427200000       -5.3885400000
C       -0.2000920000        2.5320500000       -5.5394000000
C       -1.3314400000        2.7120600000       -4.7238500000
C       -1.7137000000        1.7412100000       -3.7936600000
H        0.7549650000       -0.5354910000       -4.3762300000
H        1.4227100000        1.1693500000       -5.9995500000
H       -1.9236600000        3.6236200000       -4.8076900000
H       -2.5910000000        1.9300000000       -3.1749900000
C       -1.2446700000       -1.9894800000       -3.1183300000
C       -1.6773000000       -2.3031900000       -4.4225700000
C       -1.6435000000       -3.6160800000       -4.8966300000
C       -1.1873100000       -4.6701500000       -4.0836800000
C       -0.7667950000       -4.3592500000       -2.7785400000
C       -0.8007590000       -3.0454800000       -2.3015400000
H       -2.0430300000       -1.5166700000       -5.0837100000
H       -1.9856100000       -3.8200900000       -5.9114900000
H       -0.4152500000       -5.1505200000       -2.1160300000
H       -0.4813900000       -2.8550100000       -1.2769400000
C        0.7663740000       -3.4845000000        6.8436000000
H        1.6220600000       -4.1665900000        6.8208900000
H        0.7377320000       -3.0381100000        7.8376900000
H       -0.1302350000       -4.0944800000        6.7249800000
C        0.0397030000        6.0991300000        4.3337700000
H       -0.4772360000        6.1149900000        5.2937700000
H        0.9279760000        6.7253000000        4.4219500000
H       -0.6209530000        6.5799200000        3.6057700000
C        0.1970630000        3.5724100000       -6.5644700000
H       -0.3041590000        3.3895000000       -7.5199300000
H       -0.0762790000        4.5796400000       -6.2483700000
H        1.2697800000        3.5628000000       -6.7592800000
H       -1.9720000000       -6.3067800000       -5.2714800000
H       -0.2187620000       -6.2577800000       -5.1846600000
H       -1.1459500000       -6.8222900000       -3.8025300000

