%mem=360GB
%nprocshared=40
%Chk=/users/psyche/volatile/gaussian/nanohybrid/chk/A7.chk
# wB97XD/Def2SVP Opt
# SCRF=(SMD,Solvent=Water)
# Integral=(Grid=UltraFineGrid)

Geometry optimisation, Mol: A7

0 1
C        6.1254200000        2.6572300000        6.6236000000
H       -7.2332400000       -2.4934000000       -6.6296100000
C       -0.1770230000        1.3591600000       -2.5104400000
C        5.3650900000        2.1367500000        5.5603900000
C        0.0611270000       -0.7084190000        1.2721300000
H        6.6720100000       -0.9729180000        4.5876300000
C       -1.6845100000       -0.3307840000       -3.3973600000
H        7.5148700000        1.0049300000        3.0253600000
H        5.4907100000       -0.6150790000        5.8446800000
H        7.1611300000       -0.0834740000        6.0230700000
C       -1.9454900000       -3.8281900000       -6.2976600000
C       -5.6021300000       -3.5857400000       -7.5019800000
C       -0.8035570000       -0.5224880000       -1.0806900000
C        1.6499700000        0.3393100000        3.4073700000
N       -3.2149400000       -2.0648800000       -4.3120200000
C       -0.7514970000       -1.2432000000        0.1630050000
C       -4.0430100000       -2.5924900000       -5.4187000000
C        2.3081600000        2.8897100000        0.7531040000
C       -1.6057700000       -1.0362800000       -2.1566100000
C       -2.2558600000       -2.9395100000       -0.7799600000
O       -2.6240000000       -0.2604540000       -5.6009900000
C        2.4727700000        0.8726080000        4.5355200000
O        2.5252800000        0.3120870000        5.6382300000
C       -6.5589300000        0.0229270000       -5.0557600000
H       -6.2119300000       -3.9742400000       -8.3167600000
H        8.0203700000        1.9371400000        4.4274100000
H       -3.8266200000       -4.5861000000       -8.1813900000
C        4.0293300000        2.5869900000        5.4198600000
C       -1.7559600000       -5.3535100000       -6.0864400000
C       -0.9692130000        0.8575530000       -3.5524400000
N        3.2070600000        2.0555400000        4.3107200000
C        1.6037900000        1.0229900000        2.1528700000
C        0.8029280000        0.5082300000        1.0763100000
C        1.5213900000        2.3983700000       -0.2979030000
C        0.1382940000       -1.3479000000        2.5221500000
C        7.1684400000        1.7045200000        3.7873800000
C       -6.0554600000       -1.3026000000       -4.4259100000
H        0.9477510000       -1.3550600000        4.5276200000
H       -5.7575800000        0.5160580000       -5.6058600000
H       -7.3889300000       -0.1348300000       -5.7455100000
C        5.9793200000        1.1048400000        4.5833200000
H        7.1565400000        2.3351700000        6.7655300000
H        6.1825100000        3.9792100000        8.3246500000
C        1.9948100000        4.0146500000        6.1423500000
C       -1.1480800000       -3.2903400000       -7.5152600000
C       -4.2517200000       -3.9302100000       -7.4223100000
C        2.3607000000        2.2229700000        1.9780000000
H       -1.0303100000        1.3958700000       -4.4972800000
H        0.3602750000        2.2885900000       -2.6912600000
C       -3.1626700000       -2.8026100000       -3.1111600000
C        3.2023600000        2.7613100000        3.0897200000
H       -5.2719000000       -1.0211900000       -3.6992500000
H       -6.7666200000       -2.9542400000       -3.1792400000
C       -0.0712370000        0.7006620000       -1.2724200000
C        0.9138540000       -0.8348670000        3.5713700000
H       -2.3190200000       -5.6943900000       -5.2177100000
H       -7.5196900000       -1.4072400000       -2.8004600000
C        1.9271900000        5.5326600000        5.8281200000
H        5.2078900000        0.8438770000        3.8363400000
H        3.8543600000        4.7477100000        8.0570500000
C       -1.4828600000       -2.4388400000        0.2770540000
C        0.7616730000        1.2217600000       -0.1719720000
H       -6.9040100000        0.7109690000       -4.2827000000
H        0.9041100000        5.8347700000        5.5995600000
H        2.5462200000        5.7742000000        4.9642400000
H        2.2683900000        6.1440100000        6.6644900000
H        1.1779900000        2.5443400000        7.5422300000
H        1.4167600000        4.1301800000        8.2720400000
H        1.5176800000        2.9633000000       -1.2285200000
H        2.8861300000        3.8031200000        0.6192840000
O        3.8793700000        3.7907300000        2.9677000000
H       -0.4115060000       -2.2687500000        2.7083500000
C        1.1164100000        3.6168000000        7.3578200000
H        0.0695880000        3.8632500000        7.1746500000
C        5.5771300000        3.5877600000        7.5080000000
C        4.2589700000        4.0205500000        7.3537200000
H       -1.4473400000       -3.7674200000       -8.4493400000
C       -7.1574700000       -2.0352500000       -3.6156900000
H        6.8694500000        2.6235300000        3.2834400000
O       -3.7941900000       -3.8625600000       -3.0084000000
H       -1.5170700000       -3.3371400000       -5.4051900000
H       -2.8075500000       -3.8704700000       -0.6571820000
H       -0.7051290000       -5.5920100000       -5.9162200000
C       -6.1770400000       -2.7472000000       -6.5454300000
C       -3.4425800000       -3.4424700000       -6.3798200000
C       -2.3317800000       -2.2569900000       -1.9949100000
H       -1.4650400000       -3.0132200000        1.2015800000
C        6.3504200000       -0.2172720000        5.3057800000
H       -0.0794450000       -3.4679900000       -7.3862800000
H       -1.2956400000       -2.2163500000       -7.6272000000
C        3.4558600000        3.5301100000        6.3078200000
C       -5.4113400000       -2.2316400000       -5.4836800000
H        1.5628300000        3.4973100000        5.2666000000
C       -2.5239500000       -0.8528990000       -4.5184600000
H       -2.0867000000       -5.9354800000       -6.9475200000
H       -8.0183000000       -2.2982100000       -4.2317300000

