%mem=360GB
%nprocshared=40
%Chk=/users/psyche/volatile/gaussian/nanohybrid/chk/A8.chk
# wB97XD/Def2SVP Opt
# SCRF=(SMD,Solvent=Water)
# Integral=(Grid=UltraFineGrid)

Geometry optimisation, Mol: A8

0 1
C        3.5291400000        6.3406700000       -6.1494000000
H       -3.0638600000       -5.8224500000        7.4970300000
C       -2.6330000000        0.4991060000        1.0006200000
O       -1.9174300000        3.2975600000        0.8680010000
C        2.9310000000        5.3554100000       -5.3423000000
C        1.4209600000        0.0199630000       -0.4587980000
H       -0.0025660000        4.2015500000       -6.8871200000
C       -2.4812900000       -1.5966700000        2.2326700000
H        2.0574500000        2.5846300000       -7.3127700000
H        0.2109920000        5.5860300000       -5.8191100000
H        0.9345170000        5.5878900000       -7.4257500000
C       -4.2624100000       -5.7897100000        2.1660500000
C       -4.1722600000       -6.7425300000        5.9025700000
C       -0.5528870000       -0.7890960000        0.8757080000
C        2.6654200000        2.0898100000       -2.0198400000
N       -2.4121700000       -3.8201700000        3.3424400000
C        0.7163990000       -1.0706500000        0.2452180000
C       -3.0238400000       -4.8340800000        4.2281800000
C       -0.3789270000        3.8846600000       -0.8763150000
C       -1.1838300000       -1.8084300000        1.6739300000
O       -3.4413100000        1.4267100000        0.3982710000
C        0.5502670000       -3.4042700000        1.0802100000
O       -4.2066100000       -2.4284900000        3.6731700000
C        3.3066600000        3.1228800000       -2.8891900000
O        4.4076300000        2.9438100000       -3.4275700000
C       -0.4241340000       -4.4436900000        6.7197200000
H       -4.6211000000       -7.4889200000        6.5567700000
H        3.0520100000        3.9295000000       -7.8546300000
H       -5.1733100000       -7.4860200000        4.1531800000
C        3.2301100000        5.3600900000       -3.9576800000
C       -5.7653600000       -5.4879700000        1.9239900000
C       -3.2150900000       -0.4826980000        1.8359600000
N        2.6123300000        4.3330900000       -3.0911500000
C        1.3651100000        2.2962300000       -1.4656300000
C        0.7281760000        1.2682400000       -0.6829080000
C       -0.9877280000        2.9041500000       -0.0597070000
C        2.8003000000       -0.0316700000       -0.8294670000
C        2.7136900000        3.3865300000       -6.9709600000
C       -1.7248200000       -3.7769900000        6.1984500000
H        4.4293100000        0.8863750000       -1.9585800000
H        0.0416250000       -5.0404900000        5.9357200000
H       -0.6075260000       -5.0984500000        7.5728200000
C        1.9780800000        4.3040700000       -5.9588600000
O        3.6074000000       -0.9800330000       -0.2560610000
H        3.3236800000        6.3687700000       -7.2193000000
H        4.8429300000        8.0470900000       -6.2384900000
C        4.4203700000        6.3148600000       -1.8665300000
C       -3.7963800000       -7.0963200000        1.4707400000
C       -4.4820400000       -6.7380500000        4.5412100000
C        0.7500450000        3.5753100000       -1.6282500000
H       -4.2547800000       -0.4089750000        2.1503300000
C       -1.1791000000       -4.1235500000        2.7297700000
C        1.3713800000        4.6262900000       -2.4896900000
H       -1.4199700000       -3.0984100000        5.3820400000
H       -3.3116100000       -2.4263800000        6.8659700000
C       -1.2507900000        0.4535330000        0.6402590000
C        3.3895100000        0.9626000000       -1.6447200000
H       -6.0533900000       -4.5567800000        2.4113800000
H       -1.7407900000       -2.0823500000        7.5843300000
C        5.9232300000        6.0360700000       -1.5984300000
H        1.6271500000        3.6459100000       -5.1441900000
H        5.3470100000        8.0355500000       -3.8244500000
C        1.1498100000       -2.4329000000        0.2449400000
C       -0.5463620000        1.5452800000       -0.0610850000
H        0.2973420000       -3.6889600000        7.0367600000
H        6.1108500000        5.9257500000       -0.5292620000
H        6.2361100000        5.1137400000       -2.0872800000
H        6.5661700000        6.8398000000       -1.9601500000
H        2.8597000000        7.7650100000       -1.3665500000
H        4.4559200000        8.4968800000       -1.5100300000
H       -0.7544090000        4.9065500000       -0.9015920000
O        0.8322860000        5.7238100000       -2.6872200000
C        3.9204100000        7.6089000000       -1.1711700000
H        4.0528300000        7.5422700000       -0.0902530000
C        4.3893900000        7.2919000000       -5.5977400000
C        4.6724600000        7.2821100000       -4.2306500000
H       -4.3400300000       -7.9732700000        1.8250900000
C       -2.4085400000       -2.8852200000        7.2682100000
H        3.5866400000        2.9269300000       -6.5078200000
O       -0.6384530000       -5.2187300000        2.9363000000
H       -3.7013000000       -4.9684600000        1.6857900000
H        0.9231240000       -4.4268700000        1.1094100000
H       -5.9715800000       -5.3827600000        0.8576820000
C       -3.2914800000       -5.7971600000        6.4315100000
C       -3.9144500000       -5.7863000000        3.6740800000
C       -0.5671830000       -3.0851800000        1.8460700000
C        0.7086700000        4.9620300000       -6.5612900000
H       -3.9470900000       -7.0343900000        0.3918420000
H       -2.7349200000       -7.2684400000        1.6481300000
C        4.1001900000        6.3176800000       -3.3807300000
C       -2.7007000000       -4.8216800000        5.6072900000
H        3.8639900000        5.4808300000       -1.4030500000
C       -3.1108300000       -2.6147800000        3.1264300000
H       -6.4143300000       -6.2781300000        2.3044500000
H       -2.6885400000       -3.4450900000        8.1616700000
O        2.0593900000       -2.8369600000       -0.6967610000
C        4.7998600000       -1.4263100000       -0.8178030000
C        5.8767300000       -1.6455700000        0.0585290000
C        7.0605100000       -2.2021400000       -0.4368250000
C        4.8944700000       -1.7850000000       -2.1779800000
C        6.0872000000       -2.3376800000       -2.6530400000
H        4.0467800000       -1.6538900000       -2.8487300000
H        6.1657600000       -2.6186300000       -3.7023100000
H        8.0925100000       -2.9818300000       -2.1690500000
C        7.1700800000       -2.5458200000       -1.7896500000
H        7.8984000000       -2.3728000000        0.2377080000
H        5.7801800000       -1.3865600000        1.1112600000
C        2.8553300000       -3.9724500000       -0.5751700000
C        3.5776000000       -4.2537400000        0.6022860000
C        4.4497000000       -5.3460400000        0.6188120000
C        3.0275100000       -4.7579800000       -1.7279200000
C        3.9066300000       -5.8452600000       -1.6906800000
H        2.4814600000       -4.5129600000       -2.6370400000
H        4.0420300000       -6.4584100000       -2.5806500000
H        5.3006800000       -6.9887300000       -0.4982680000
C        4.6153900000       -6.1433600000       -0.5206370000
H        5.0121500000       -5.5678700000        1.5246600000
H        3.4763200000       -3.6207100000        1.4824200000
C       -4.6660000000        1.8452400000        0.9104560000
C       -4.8176300000        2.2330600000        2.2571900000
C       -6.0433700000        2.7558300000        2.6788900000
C       -5.7190900000        2.0069700000       -0.0059620000
C       -6.9369800000        2.5337300000        0.4362190000
H       -5.5786000000        1.7259500000       -1.0480200000
H       -7.7570800000        2.6588700000       -0.2692820000
H       -8.0519800000        3.3186300000        2.1137100000
C       -7.1033400000        2.9056400000        1.7756900000
H       -6.1665700000        3.0593000000        3.7176600000
H       -3.9886000000        2.1467400000        2.9583600000
C       -2.7340600000        4.4151600000        0.7259800000
C       -2.9522300000        5.1960300000        1.8741800000
C       -3.8566200000        6.2615300000        1.8162700000
C       -3.4341000000        4.6806300000       -0.4686760000
C       -4.3321300000        5.7512600000       -0.5055410000
H       -3.2964400000        4.0513300000       -1.3466400000
H       -4.8782900000        5.9597500000       -1.4244000000
H       -5.2505900000        7.3706900000        0.5918330000
C       -4.5449500000        6.5427800000        0.6300700000
H       -4.0279900000        6.8703600000        2.7027900000
H       -2.4223800000        4.9635500000        2.7959400000

