%mem=360GB
%nprocshared=40
%Chk=/users/psyche/volatile/gaussian/nanohybrid/chk/D1.chk
# wB97XD/Def2SVP Opt
# SCRF=(SMD,Solvent=Water)
# Integral=(Grid=UltraFineGrid)

Geometry optimisation, Mol: D1

0 1
H       -9.8446300000       -7.8320100000       -3.3350000000
O       -4.6052900000       -3.5236200000       -2.2201400000
C       -4.2863000000      -15.9137000000       -3.2905700000
C        8.3439200000        8.7542400000        3.6388900000
H       -8.4626300000       -8.3851400000       -4.2821100000
S       -8.8822300000       -5.1562900000       -2.9239800000
H        1.2509500000       17.4940000000        3.5096400000
H        8.8786000000       12.8785000000        5.6127600000
C        7.5439600000       10.9824000000        3.8106900000
H       -1.0913200000        6.8540300000        1.4305100000
C        1.8523300000        6.5967600000        1.2764700000
H        0.1416470000       -5.4505500000       -0.9296880000
C       -8.0352200000       -6.6934600000       -3.0260900000
H       -0.6368660000        7.1417800000       -0.2494780000
C       -4.2458800000      -17.3626000000       -3.3886600000
C       -0.5327060000        7.5239800000        0.7703270000
H        1.8523200000       17.7113000000        1.8717500000
S       -4.3123700000      -10.6768000000       -2.8738600000
C        5.9388500000        9.2099700000        2.8948700000
C       -1.8880900000      -10.2721000000       -2.0912000000
H       -4.7109800000      -21.9905000000       -3.8554700000
C       -5.1196000000      -13.6821000000       -3.3511200000
C       -5.6419200000       -7.5774100000       -2.8227000000
C       -0.7388590000       -2.2015900000       -0.8066570000
F       -1.9691700000      -17.7893000000       -2.7753600000
C       -5.4191900000      -21.1729000000       -3.9871800000
H        2.0521500000       -4.1697700000       -0.1334670000
C        7.2669900000        9.6108800000        3.4338400000
C        1.4733300000        8.8997300000        1.5349000000
C       -3.2622300000      -12.0846000000       -2.6764100000
S        3.4186800000        7.2274000000        1.8050700000
S        0.2190530000        4.4031600000        0.4514110000
S        5.0914300000       15.1336000000        3.6634600000
C       -1.9821200000      -11.6771000000       -2.2482400000
C        4.4058000000       17.8781000000        3.8236200000
H        1.8625600000       14.1560000000        2.2950000000
C        1.5872100000       -3.1849100000       -0.1652680000
C        8.4292800000        7.2810700000        3.3637900000
S       -2.8984100000      -14.9235000000       -2.8107800000
C        6.5191700000       12.0520000000        3.6489600000
C       -4.7682500000      -19.8490000000       -3.7125000000
S        9.7041900000        9.6426700000        4.3091000000
C       -3.4615500000      -19.6165000000       -3.3275200000
H       -0.5073600000      -13.1492000000       -2.8550800000
C       -7.4206300000       -2.7716000000       -2.3939400000
O        5.7310600000        8.0317600000        2.5614700000
H       -6.2645600000      -21.3513000000       -3.3168700000
H       10.4743000000       12.2651000000        5.1757600000
H        2.2011000000       -2.5583000000       -0.8189320000
C       -3.1796300000       -8.1037400000       -2.2702000000
C        4.1056800000       12.5325000000        2.8898900000
C        2.8243200000        8.8844100000        1.9062800000
C       -3.0525000000       -9.5468100000       -2.3782800000
H       -2.7252400000      -20.4009000000       -3.1743300000
O       -5.9518000000       -8.7348200000       -3.1458900000
H        0.7511500000       16.3887000000        2.2357600000
H        4.7076100000       17.9440000000        4.8725100000
C       -3.8955000000       -5.8110300000       -2.1816600000
F       -6.5662100000      -15.5296000000       -3.9162100000
C       -3.1843100000      -18.2283000000       -3.1506900000
C        0.1600960000       -3.2775300000       -0.6507790000
C       -1.1150500000        1.4998400000       -0.3892060000
C        4.8966300000       10.2657000000        2.7710400000
C        9.4639100000       12.4340000000        4.8040100000
H        9.4088800000        6.8750500000        3.6168900000
C        1.7149800000        5.1748000000        1.0194400000
C        2.7420500000       14.6503000000        2.7056300000
C       -1.5662200000        0.2019580000       -0.7154600000
C        0.2132800000        1.6016600000        0.0304600000
C        2.7112800000        4.2014600000        1.1720300000
H        5.2608100000       18.2093000000        3.2273500000
C        0.9425520000        2.7863400000        0.4268760000
H        0.0626190000      -12.0029000000       -1.6517600000
O        6.7845900000       13.2222000000        3.9661100000
C        2.2707800000        2.8991900000        0.8440260000
C       -1.7551000000       -4.4718600000       -1.4298200000
C       -4.2525000000       -7.2020900000       -2.4363000000
C        8.8287200000       11.1667000000        4.3111900000
H       -6.8756200000       -2.2633500000       -3.1947000000
C       -0.8045810000      -12.5806000000       -1.9694400000
C        2.7700100000       16.0560000000        2.9310500000
F        3.0813800000        1.8293700000        0.9289980000
S        0.9229850000       -0.0211000000        0.0100280000
H       -1.0207600000      -13.3014000000       -1.1759100000
C       -7.4070600000       -4.2583200000       -2.5953400000
H       -0.9646670000       -9.7986800000       -1.7600900000
C       -0.4210990000       -4.5205100000       -1.0017200000
H       -8.4346300000       -2.3720700000       -2.3753900000
C       -6.6744700000       -6.5052000000       -2.8085500000
F       -1.9168700000        2.5762800000       -0.4748210000
S        2.7212900000       11.6070000000        2.2881300000
H       -5.8065000000      -21.2264000000       -5.0082500000
C        3.9147700000       13.9677000000        3.0418000000
H       -2.5803800000        0.0022310000       -1.0521200000
H        3.7235700000        4.4099700000        1.5094900000
C       -4.9061400000       -4.7241700000       -2.3129300000
C       -8.7638400000       -7.9730800000       -3.3146400000
C       -5.3636100000      -15.0630000000       -3.5333500000
C        3.5789800000       10.0571000000        2.3147800000
H        3.6017800000       18.5969000000        3.6691600000
H        1.6488200000       -2.7652600000        0.8431480000
H       -5.8859300000      -12.9270000000       -3.5100400000
C        3.9883600000       16.4801000000        3.4565000000
C       -6.3180900000       -5.1228300000       -2.5635800000
C        1.5952500000       16.9584000000        2.6214000000
H       -1.0283400000        8.4939800000        0.8021440000
S       -2.2954800000       -2.7932500000       -1.4005000000
C       -2.5454400000       -5.6289200000       -1.8125900000
S       -1.7295700000       -7.2020900000       -1.7959700000
C        5.1885400000       11.6566000000        3.1083800000
H        0.8761190000        9.8104400000        1.5180700000
C        0.9148820000        7.6468600000        1.1835900000
S       -5.6577400000      -18.3336000000       -3.8567600000
C       -3.8084500000      -13.4033000000       -2.9487100000
C       -0.5802410000       -0.7806660000       -0.5565950000
H       -6.9320200000       -2.4963400000       -1.4556900000
H       -8.5369000000       -8.7340500000       -2.5636600000
H        9.5205100000       13.1811000000        4.0076300000
H        7.6788200000        6.7304100000        3.9374500000
H        8.2396000000        7.0670900000        2.3085700000

