%mem=360GB
%nprocshared=40
%Chk=/users/psyche/volatile/gaussian/nanohybrid/chk/D10.chk
# wB97XD/Def2SVP Opt
# SCRF=(SMD,Solvent=Water)
# Integral=(Grid=UltraFineGrid)

Geometry optimisation, Mol: D10

0 1
O        4.2150000000      -17.8103000000       -3.7287000000
S        2.1889100000       -8.2779600000       -0.2120900000
C        0.6010670000       10.9997000000        0.8211070000
H       -0.1969670000       10.3983000000        1.2528900000
H       -0.2348940000       18.9165000000        2.8266400000
C        5.8786800000       15.5194000000       -3.5232500000
C       -0.1074420000        4.6840700000        0.7196970000
C        0.3679980000      -15.6390000000       -2.0516000000
H        6.3251100000       14.5495000000       -3.7593900000
C        0.7597970000        1.1458300000       -0.0468540000
C       -5.7741300000        5.6107200000        2.5538600000
C        0.0215940000       17.2267000000        1.5139100000
C        1.0700000000        5.0808600000        0.1087220000
O       -7.6717600000       -4.7345200000        3.2937000000
C       -3.6106800000       -4.7032100000        1.4016100000
S       -3.5421500000       -7.9361600000        0.8264080000
C       -1.8208200000      -18.7995000000       -1.8659100000
C        1.6688200000       10.4339000000        0.1380590000
C        4.7060000000       -7.4494400000       -1.2804500000
H       -5.8649500000       11.9796000000        2.6351700000
H       -2.6995900000      -18.8285000000       -2.5163500000
H        4.0129200000       -0.1588560000       -3.2650400000
C       -1.2665200000       -8.7197400000       -0.2666340000
C        3.5195900000       -0.1821700000       -2.2963100000
H       -2.9011700000      -13.4610000000       -0.4454420000
C       -1.8129200000       -1.3733600000        1.0226500000
C       -5.6743900000       -3.7182300000        2.5221900000
H       -6.2786200000        5.6012000000        3.5203200000
C       -4.7143500000       -2.7704200000        2.2156100000
C        7.9472600000        6.1105800000       -3.3802700000
C       -8.9647900000       -4.6920400000        3.9131900000
C        1.6006100000       -9.2585000000       -2.5374300000
C       -3.0504000000        3.0369400000        3.2258500000
C        3.3847300000       -8.1265700000       -1.5020700000
C       -2.8817300000      -10.6015000000        0.0991040000
C       -2.5131200000       -5.3161000000        0.7933040000
C       -0.0663190000       14.6779000000        1.4495000000
C        3.9204600000       -0.9984090000       -1.2632700000
C       -4.6166500000        4.6554900000        2.5454800000
H       -6.5148400000        5.3560200000        1.7909800000
S        3.5515300000       14.4414000000       -2.2728900000
H        4.1573100000       16.1850000000        0.8708920000
C        0.6244760000       12.4340000000        0.9032430000
C       -2.0022500000      -12.8943000000       -0.6812680000
C        1.9014700000        0.4503180000       -0.7033870000
S       -5.7244900000      -10.3520000000        0.0728110000
C       -0.6374260000      -10.9605000000       -0.8953270000
C        1.7291300000      -15.3644000000       -2.4642300000
H       -8.5788000000      -12.1785000000        1.7447200000
S        0.3894540000      -12.2650000000       -1.5148200000
C        2.3882600000        0.6375750000       -1.9804800000
C       -0.2813440000       -9.5984100000       -0.8124960000
C        4.9356600000        7.5519300000       -1.7793500000
C       -4.1967600000      -11.0964000000        0.5850550000
C       -0.2509700000       18.6810000000        1.7587800000
H        3.4781800000       -8.7198400000       -3.5898400000
C       -3.8007700000       12.2274000000        3.2221700000
S       -1.3225400000       -4.0527500000        0.4249890000
C        1.8851400000        9.0163700000       -0.0732200000
H       -5.4900000000       11.4037000000        4.2596300000
H       -0.3095190000       -6.7099900000       -0.3948930000
H        5.2725100000       -7.9184300000       -0.4716440000
C       -1.4932600000       11.7698000000        3.2725700000
C       -0.3418240000        3.2652200000        0.7068360000
H       -1.1099300000      -19.5386000000       -2.2353400000
C       -3.5191500000       -3.2795800000        1.5743100000
C       -1.1772500000       -7.2938100000       -0.0935400000
F        4.6176000000        9.8834900000       -1.4723900000
C       -0.8734160000      -13.4867000000       -1.2290500000
F        2.2550500000      -14.1427000000       -2.4205600000
H       -1.2349700000       18.9751000000        1.3840100000
C        2.4525200000      -16.4576000000       -2.9059500000
H       -5.4543600000        6.6377400000        2.3561200000
H       -9.3522900000       -5.7155900000        3.9256100000
S        2.7603600000       11.7046000000       -0.4645410000
H       -0.7901010000        5.3961800000        1.1795000000
C       -2.2938300000       -6.7120000000        0.4812650000
H        0.0652260000       -1.6762900000       -0.0315900000
C       -8.1714800000      -11.3922000000        1.1088500000
H        4.5807500000       -6.3961300000       -1.0116900000
C       -2.7956100000       11.4782000000        3.7906800000
H        6.2895000000      -17.7174000000       -3.4488000000
C        5.5515900000      -18.0088000000       -4.2098000000
S       -1.0545300000       15.9734000000        2.1650100000
H       -8.8917600000       -4.3183700000        4.9441700000
H        5.6110300000       -1.9464900000       -2.1871200000
H        5.3180500000       15.8351000000       -4.4072200000
H        6.6917800000       16.2305000000       -3.3745700000
C        3.8538900000      -16.5295000000       -3.3879000000
H        7.9413500000        6.6034900000       -4.3628000000
H       -4.6686800000        3.7962100000        4.5399800000
C       -2.5274200000       -9.2389800000        0.1690570000
C        2.9115500000       -8.6953800000       -2.6622400000
S       -2.0777500000      -16.0086000000       -1.2723100000
H        1.9407100000        1.3251900000       -2.6940300000
C       -0.7185100000      -14.8967000000       -1.5421700000
H       -0.5933280000       11.2802000000        3.6375700000
C       -1.4822800000       12.7518000000        2.3014400000
C       -4.1883600000        3.8374800000        3.5656400000
H       -8.6153200000      -11.5044000000        0.1160040000
H        4.7010600000       -3.0051900000       -1.1104100000
O        6.9200900000        8.5194500000       -2.7682800000
C        2.9415200000        8.2994000000       -0.6833290000
H       -8.5165700000      -10.4329000000        1.5049600000
C       -0.6134950000       -0.9725660000        0.4474140000
H        8.7528700000        6.5368800000       -2.7656400000
H        6.0089500000       16.7411000000       -0.8840110000
H        8.1223900000        5.0383400000       -3.5138500000
S       -3.1357500000       13.3317000000        2.0178800000
S        1.4587000000      -17.9531000000       -2.8387700000
C        2.7480400000        6.8753100000       -0.6644990000
C        3.1903500000       14.9063000000       -0.5996250000
C       -6.6734900000      -11.4635000000        1.0600000000
S       -3.5929700000        4.4490200000        1.1220100000
H       -2.5856500000        2.3452100000        3.9248700000
C        5.0037100000       15.4413000000       -2.3064700000
C       -5.8449400000      -12.3360000000        1.7286500000
H        0.4943790000       19.3081000000        1.2687800000
H        1.8158300000       17.2940000000        0.3224210000
C       -6.9970200000       -3.5444700000        3.1729200000
C        0.0729090000      -17.0444000000       -2.2025000000
H       -5.6242300000       13.1325000000        3.9395000000
C        1.7465600000       12.9899000000        0.2134980000
S       -5.1356100000       -5.3537800000        2.0179500000
O       -7.4704500000       -2.4832700000        3.5714700000
C       -1.8995800000      -11.4784000000       -0.4620140000
C        2.0015700000       14.3760000000        0.1217820000
C       -1.4484300000        2.5564300000        1.2670200000
C        5.1746400000       16.0774000000       -1.0975300000
O        6.6776500000        6.2555100000       -2.7287500000
C        4.1536400000       15.7801000000       -0.1382600000
C        1.0488700000       -9.1181200000       -1.2811700000
S        2.8803100000       -0.7637870000        0.1430120000
C        1.5706400000        6.4280500000       -0.0610970000
S        0.6769580000        7.8533700000        0.5056680000
C       -2.5849600000        3.2419400000        1.9435700000
H        5.3186000000       -7.4898000000       -2.1814500000
C       -0.3173870000       13.2934000000        1.5540900000
C        6.2536200000        7.5338100000       -2.4617600000
C        4.1969300000        8.6301200000       -1.3266900000
H       -9.6509000000       -4.0502700000        3.3427500000
C        0.7213780000        2.5485800000        0.0670270000
C       -4.4530100000      -12.1329000000        1.4601600000
C       -5.2691800000       12.1826000000        3.5291600000
H       -2.9696400000       10.7337000000        4.5637800000
S       -2.6851100000        0.0350520000        1.6759300000
H       -2.1481000000      -19.1193000000       -0.8726770000
C       -1.4178100000        1.1521600000        1.1415800000
C       -2.3104300000       -2.7322700000        1.0816000000
C       -1.2001100000      -17.4336000000       -1.8329500000
H        5.7280000000      -17.4282000000       -5.1264400000
S        1.9712200000        3.6733000000       -0.5087830000
H        1.0811600000       -9.7333400000       -3.3664700000
C        5.0560700000       -1.9796500000       -1.2492500000
C       -0.3568480000        0.4377500000        0.5000730000
H        5.6618700000      -19.0754000000       -4.4303800000
H       -6.2090500000      -13.1078000000        2.4023600000
H       -3.6712000000      -12.7255000000        1.9293700000
H        5.7596000000       -1.7737900000       -0.4382130000
O        4.6330400000      -15.5845000000       -3.4869000000
C        1.0565000000       15.2323000000        0.7598920000
S        4.0890800000        6.0092900000       -1.4253800000
F       -4.8821700000       -1.4805800000        2.4947300000
C        1.0602400000       16.6814000000        0.8087810000

