%mem=360GB
%nprocshared=40
%Chk=/users/psyche/volatile/gaussian/nanohybrid/chk/D11.chk
# wB97XD/Def2SVP Opt
# SCRF=(SMD,Solvent=Water)
# Integral=(Grid=UltraFineGrid)

Geometry optimisation, Mol: D11

0 1
C       -0.5931780000       -4.9017400000        1.7445400000
C       -0.4194280000       -2.1052700000        0.5594370000
C       -7.2747000000       -1.4348200000       -3.2367800000
O       -6.6011400000       -0.4001560000       -3.2159600000
H        5.5544700000       -3.3791600000        4.8526600000
S       -4.2487400000       -1.1321200000       -1.8005600000
C       11.3704000000       13.1817000000        2.2042100000
H       14.8303000000       11.3089000000        3.5804400000
C       -7.9692400000       -4.9404400000       -2.4908600000
O       -1.6010000000        0.9378940000       -1.1866800000
N       -8.5255400000       -1.5459500000       -3.8804500000
C       -0.5223360000       -0.7829420000        0.0075340000
H       -0.9740590000       -5.8954100000        2.0103900000
H        0.7131560000        1.0532500000       -0.0602620000
H      -12.2287000000       -6.5828500000       -5.6710600000
H        7.1182400000       -2.6400800000        4.4252100000
H      -13.4979000000      -13.8338000000       -3.8412400000
H        4.6665900000        7.9225900000       -0.3693300000
H        9.5741200000        2.6640200000        4.6504700000
O       12.0130000000       14.2254000000        2.3126300000
H       10.1814000000       14.9950000000        0.6859720000
H       10.9487000000        6.8593500000        3.4877900000
C        9.6151800000       11.7633000000        1.5593800000
H      -10.1201000000       -0.8096340000       -5.0100300000
C      -12.9769000000      -11.8727000000       -3.1098700000
H       -2.8513200000        1.1145700000       -2.8638200000
O       10.0680000000        4.4420400000        3.6447600000
C        2.8892600000       -0.0625740000        1.4403500000
C        5.8601800000        2.5949400000        2.0135500000
C       12.6868000000       11.1887000000        3.4198200000
C        6.8326700000        6.1521800000        1.4295900000
N        5.4954200000       -1.8962900000        3.3413400000
C      -13.0745000000       -7.2574700000       -5.4517900000
H       13.9902000000       12.8528000000        3.7599600000
C       -9.0726200000       -2.8411500000       -3.7540500000
C       -2.7068500000       -1.2977800000       -0.9236840000
C      -11.9988000000       -8.3038000000       -3.5468000000
C      -10.8304000000       -7.6101900000       -3.1767400000
N       10.1330000000       13.0778000000        1.5296700000
S        1.1441600000       -2.2852000000        1.3948600000
C      -10.9749000000      -10.3574000000       -2.6364500000
C       10.6057000000       10.9403000000        2.3070400000
O        7.1615600000       -0.2812860000        3.6116300000
C       -9.1733200000       -0.4527230000       -4.6003800000
O       -1.5338000000       -4.3327000000        0.8456170000
S        7.4181200000        2.4432200000        2.8609100000
C       -3.7440800000       -3.4367000000       -0.6751740000
H       -8.5417400000       -0.0947940000       -5.4240800000
C       -6.9907600000       -2.7724200000       -2.6442100000
C        5.6039400000        7.9037300000        0.2000030000
H      -14.1483000000      -13.4671000000       -2.2506100000
H       -7.1224700000      -11.5580000000       -1.6969400000
C        3.9274100000       -0.6623110000        2.1558800000
C       -1.4662500000       -3.0365600000        0.3863810000
C      -12.0781000000       -9.6891700000       -3.2575300000
C       10.0718000000        7.1752700000        2.9257900000
O        3.5310800000       -3.0235200000        2.7663000000
S       -6.4187100000       -5.0727000000       -1.6160700000
H      -13.0013000000       -8.1347200000       -6.1216100000
H       -2.3108100000        2.6149600000       -2.0760300000
C       -2.6488100000        1.5884500000       -1.8892900000
H       -7.4349700000      -10.7166000000       -3.2442000000
H       10.3536000000        2.4546800000        3.0374000000
C        5.6943500000        3.8776300000        1.5176300000
H      -14.0091000000       -6.7285200000       -5.6672000000
H        6.4249600000        8.1712300000       -0.4854050000
C       -9.7898000000       -9.6768700000       -2.3016500000
H       11.2994000000        3.0354300000        4.4297400000
H        0.3988680000       -5.0305300000        1.2802200000
C        4.2168000000       -1.9971900000        2.7508700000
H      -14.8622000000      -12.7265000000       -3.6843400000
O      -13.1173000000       -7.6531800000       -4.0815600000
C        6.0523000000       -0.6105240000        3.1792400000
C       10.3157000000        3.0767500000        3.9464400000
C        7.8348800000        4.1452900000        2.5451300000
S      -10.4812000000       -5.8867000000       -3.3858000000
C       -4.7191900000       -2.8089900000       -1.4327300000
O       -8.7187800000      -10.2883000000       -1.6411100000
C       -9.7245100000       -8.2780900000       -2.5568800000
S        3.3604100000        1.6241600000        1.0930200000
C        9.4548900000       14.2065000000        0.8963650000
H       -8.4778500000      -12.0797000000       -2.7356700000
S      -11.3647000000      -12.0762000000       -2.3815300000
C        4.9365700000        1.4846100000        1.9192800000
H       -9.3719900000        0.3964930000       -3.9335700000
C        0.6304850000        0.0236070000        0.2825840000
H        8.6717000000       14.6220000000        1.5474300000
C        9.8770800000        8.4751700000        2.4939900000
H       -3.5767900000        1.6357400000       -1.2960700000
C        9.0168300000        6.2661700000        2.5824700000
C       10.7515000000        9.6123300000        2.7046800000
C       -8.6406900000       -7.3801900000       -2.2652100000
H      -14.1141000000      -10.2489000000       -3.9781000000
C       -8.8709100000       -6.0664200000       -2.6408000000
C        7.9602100000        6.8967500000        1.8407500000
O        8.5449000000       11.4323000000        1.0405600000
H        5.5290700000        8.6539000000        1.0048300000
H        4.8105600000        4.1926600000        0.9659900000
C      -13.9204000000      -13.0330000000       -3.2278100000
C      -13.1893000000      -10.5831000000       -3.5133200000
O        5.7428500000        6.5866200000        0.7105570000
C       -2.6043700000       -2.6203800000       -0.3716720000
C       -5.9660800000       -3.3709800000       -1.9088400000
H       -7.7206500000       -7.7153300000       -1.7895500000
C       11.6798000000       11.8057000000        2.7054300000
S        8.3403300000        8.6227700000        1.6085400000
O      -10.1554000000       -3.1805800000       -4.2380300000
H        6.3629700000       -3.8306100000        3.3372800000
C        6.1670800000       -2.9976300000        4.0259600000
S       12.2889000000        9.4699700000        3.6029000000
C        1.6213000000       -0.6132590000        1.0112900000
C       13.9358000000       11.7892000000        3.9865400000
C       -1.6686900000       -0.3598930000       -0.7335450000
H       13.9768000000       11.6715000000        5.0729400000
H       -0.4983800000       -4.3130000000        2.6716500000
H       -3.8266900000       -4.4674800000       -0.3355620000
C        5.0492000000        0.1850830000        2.4179700000
C        6.7779400000        4.7734300000        1.8021900000
C        8.9747600000        4.8821900000        2.9321700000
H        8.9853200000       13.8904000000       -0.0403600000
C       -7.9085000000      -11.2052000000       -2.3734300000
C       -8.0903300000       -3.6318500000       -2.9590300000

