%mem=360GB
%nprocshared=40
%Chk=/users/psyche/volatile/gaussian/nanohybrid/chk/D12.chk
# wB97XD/Def2SVP Opt
# SCRF=(SMD,Solvent=Water)
# Integral=(Grid=UltraFineGrid)

Geometry optimisation, Mol: D12

0 1
C        4.6758200000       11.4085000000      -11.3821000000
C        0.1537450000        1.3626900000       -0.7478440000
H        2.8809500000        5.1115900000       -0.6490920000
C        3.8820900000        7.6830900000       -6.5352200000
H       -5.3230300000       -7.1651200000       13.6866000000
C       -7.4417800000      -11.2734000000       13.6700000000
C        6.2343000000       14.2682000000      -13.6584000000
S       -1.3448100000       -0.7305330000        0.3989750000
C       -0.0073980000       -0.3512050000        2.5941300000
C       -2.5229400000       -4.5120700000        6.9185800000
S        2.3056700000        7.5562000000       -8.5986600000
H        4.3477100000        5.5852000000       -1.5301700000
S        1.4350000000        2.5832600000       -0.7581640000
H       -3.9288400000       -8.2816400000       13.6584000000
C       -3.1973200000       -4.0412900000        3.1467500000
H       -7.0946800000      -10.9727000000       10.3311000000
C       -1.0161100000       -1.1699500000        2.0842500000
S       -4.0693400000       -6.0895100000        5.5556300000
C       -4.6100600000       -7.5708900000        9.4541300000
C       -6.2493700000       -9.7896000000       11.9677000000
O       -3.3821400000       -6.0151900000       10.9339000000
C        0.4929970000        0.5945720000        1.6702300000
C       -7.0088700000      -10.8150000000       11.4058000000
H        3.0269000000       10.9627000000      -12.7497000000
C       -7.9822100000      -11.9189000000       14.9106000000
C        1.7749500000        4.0771600000       -3.1914600000
N        2.8592800000        4.8567300000       -2.7632700000
H        0.3686070000       -0.4320340000        3.6115100000
C       -5.9222700000       -9.2660200000        8.5575600000
N       -5.3825800000       -8.4569200000        7.5218600000
O        4.2322100000        6.5422800000       -3.6242800000
H       -8.6351700000      -12.7555000000       14.6611000000
H        5.5851300000       15.9560000000      -14.8373000000
H        4.0020700000        3.8639800000       -1.2653200000
N        0.9955070000        5.1569200000       -6.6608000000
N       -4.7018800000       -7.7697900000       11.7415000000
H       -0.1891010000        6.1322600000       -8.1386700000
H       -0.3878480000        2.3881000000       -3.9222300000
H       -6.2430600000       -9.7057200000        6.1183800000
O       -0.3605670000        3.4537100000       -5.8084100000
C       -4.4167900000       -7.4490000000       13.1318000000
H       -6.2364100000       -8.0019700000        5.6234700000
C        3.0546300000        9.7630500000      -10.9049000000
C       -5.4927800000       -8.8003800000       11.2183000000
C        3.8231500000        9.6316000000       -9.7490300000
C        3.6201200000        8.7401100000       -8.6276300000
C       -0.1137890000        0.5455830000        0.4141820000
C        6.4121800000       15.2416000000      -14.7864000000
C        1.0804900000        3.0560600000       -2.4358100000
C       -2.6856100000       -3.1048900000        2.2192100000
C        3.5252300000       10.7475000000      -11.8071000000
C        7.0484100000       14.0892000000      -12.5593000000
H       -3.0068600000       -3.0730500000        1.1804400000
H       -3.9461300000       -4.7829000000        2.8771100000
S        5.1770100000       10.7770000000       -9.8047200000
C       -5.4311600000       -8.6862900000        9.8079800000
C       -0.4904650000        1.3501200000       -1.9876000000
H       -8.5597800000      -11.2131000000       15.5141000000
H        7.3342300000       15.8109000000      -14.6676000000
C        0.0165080000        2.2814600000       -2.9156600000
H       -2.7859200000       -5.4023600000        8.9102800000
H        0.9853520000        4.9475600000       -8.7792200000
C        4.3539100000        8.6537300000       -7.4419300000
H        7.9562000000       14.6633000000      -12.3908000000
H       -1.3168400000        0.6827670000       -2.2223700000
C        3.2794100000        5.7554900000       -3.7796200000
C        1.4841800000        4.4809500000       -4.5195200000
H        5.2136800000        9.2846100000       -7.2269900000
C        2.3874900000        5.5138400000       -4.9139000000
C       -3.0386800000       -5.4353100000        7.8508500000
C       -2.6654600000       -3.9232400000        4.4318200000
C        2.7634700000        6.9686900000       -6.9825000000
S       -6.3771200000       -9.8743600000       13.7416000000
H       -3.7346000000       -6.5948800000       13.1387000000
H       -7.1803900000      -12.3004000000       15.5490000000
H        1.2806400000        1.3006800000        1.9242300000
C       -2.9763700000       -4.6999800000        5.6109600000
C       -5.6532000000       -8.7852700000        6.1299900000
H        4.3483400000        7.5076800000       -5.5660500000
H       -0.4612070000        4.3938500000       -7.9108500000
C       -4.5920500000       -7.4238300000        8.0454600000
C       -1.7344200000       -2.2335300000        2.7516800000
H        7.1279100000       12.8237000000      -10.7489000000
H        2.1659900000        9.1669200000      -11.1008000000
C       -3.9057200000       -6.3877700000        7.3010300000
C        2.0824900000        5.9332800000       -6.2343400000
C        6.5923500000       13.0816000000      -11.6595000000
H       -4.7296400000       -8.9595300000        5.5599500000
C        5.4133900000       12.4632000000      -12.0548000000
C       -4.1317700000       -6.9818700000       10.7037000000
C        0.3072830000        5.1704900000       -7.9432500000
O       -6.6486300000      -10.2501000000        8.3267600000
H       -8.2997000000      -12.4771000000       12.0739000000
C        0.5857980000        4.2471500000       -5.6500800000
C        3.5477200000        4.8416800000       -1.4809900000
H       -1.8387000000       -3.7156700000        7.2017100000
C       -7.6694900000      -11.6378000000       12.3574000000
H        6.4545900000       14.7361000000      -15.7550000000
S       -1.4840600000       -2.6018100000        4.4671800000
S        4.8620200000       13.1620000000      -13.5917000000

