%mem=360GB
%nprocshared=40
%Chk=/users/psyche/volatile/gaussian/nanohybrid/chk/D13.chk
# wB97XD/Def2SVP Opt
# SCRF=(SMD,Solvent=Water)
# Integral=(Grid=UltraFineGrid)

Geometry optimisation, Mol: D13

0 1
H       -7.6803000000        8.0846100000       -7.7369200000
H        4.2023600000       -4.1475400000        4.5179500000
C        6.7962800000       -7.5462800000        5.9041800000
C        3.5686800000       -4.8789000000        1.9556600000
C       -1.3115500000        0.0816450000       -2.9576800000
H        3.9804200000       -6.2422400000        7.4754700000
H       -0.9039830000       -0.8732200000       -3.2929200000
H       -5.1758300000        4.0956200000       -6.8796700000
C       -7.1725700000        7.7850000000       -6.8222500000
H       -6.3641200000        5.8767300000       -7.5503900000
C       -0.2045860000       -0.2412460000       -0.7141430000
C       -8.5184600000       11.8192000000       -4.3494700000
C        4.6384400000       -5.1026200000        4.2203000000
H       -3.8091900000        2.2034500000       -6.1274400000
C       -7.8067000000        9.8363100000       -5.4167200000
C        5.7817400000       -7.5751400000        3.4867500000
C       -2.6306400000        2.0510400000       -3.4382500000
H        8.2041000000       -8.8584000000       10.3280000000
C       -3.0537300000        3.8954400000       -1.9034700000
H        8.8197100000       -9.8492900000        7.3829500000
C       -3.9983900000        3.0324900000       -5.4450400000
H       -4.6937400000        6.0202800000       -3.0155700000
C       -1.5858900000        1.7906600000       -1.2452500000
C        7.5608000000       -8.7154500000        6.0565700000
C        7.3716500000       -6.8535000000        8.1739900000
C       -4.1126600000        3.8195000000       -0.7518630000
H       -2.2864400000        0.4300800000       -4.8495900000
C        6.6224100000       -4.0747700000        6.6067800000
H       -3.6405500000        3.5969900000        0.2064290000
H        4.8278900000       -5.1082700000        8.5235900000
C       -5.0470100000        5.2161400000       -5.0137800000
C       -4.5060100000        5.1916000000       -3.7004800000
H       -1.4798800000        4.8245000000       -0.6609200000
H        2.0671200000       -4.3861700000       -1.0336100000
H       -8.5988500000       12.5232000000       -3.5248300000
C       -3.7306900000        4.1145500000       -3.2760100000
C        5.4324700000       -5.8046800000        5.1251900000
C        4.9865500000       -6.8689200000        2.5818200000
C        5.8176600000       -5.4178200000        6.5713000000
H       -9.4914400000       13.7127000000       -6.8701800000
H        1.3285900000       -0.7802210000        2.2487400000
C       -4.7747300000        4.1133000000       -5.8664000000
C        2.0839000000       -3.1529300000        0.7724590000
S        2.8299000000       -3.3196600000        2.3695500000
S        0.5109470000       -1.8053900000       -1.1548700000
C        8.2251100000       -8.9426000000        7.2667900000
C        4.3988900000       -5.6208300000        2.9194900000
C        4.5517700000       -5.3137600000        7.4881300000
H       -1.3999100000        2.1821700000       -0.2447520000
H        6.0152600000       -3.2392400000        6.2539800000
C        6.7051800000       -6.6196200000        6.9677900000
H       -4.6483200000        4.7640800000       -0.6436340000
H       -0.1551450000        0.9803020000        1.1047600000
C        1.2758700000       -1.9963900000        0.4309950000
H        6.9530600000       -3.8369600000        7.6191400000
C        6.0120900000       -7.0438300000        4.7681500000
C       -9.9377300000       13.1969000000       -6.0151200000
H        3.5590600000       -6.1219100000        0.1519080000
H        7.6416000000       -9.4401600000        5.2463200000
H        4.8230200000       -7.2994200000        1.5938300000
C       -2.3688500000        2.5277200000       -2.1318500000
C        0.9725020000       -0.8963910000        1.2274000000
H       -2.4822400000        5.9943500000       -1.5132300000
H       -1.2566100000        5.0812100000       -2.3891300000
H        7.5080700000       -4.1312700000        5.9734900000
H        6.2180100000       -8.5299800000        3.1930200000
C       -7.1731500000        8.5507200000       -5.6621400000
C       -7.7897400000       10.5960000000       -4.2552000000
C        0.1544570000        0.0723010000        0.5928880000
C       -2.0956500000        0.8162920000       -3.8481200000
H        9.1334400000       -7.3785000000       10.1558000000
C       -6.4467200000        6.5688100000       -6.7154100000
C       -2.0042700000        5.0170400000       -1.5983300000
C        3.2301500000       -5.2116300000        0.6481910000
C        2.4084000000       -4.2578800000       -0.0082490000
C        8.1440000000       -8.0238000000        8.3337700000
S       -8.7599200000       10.6739000000       -6.6596100000
H        7.2997800000       -6.1334000000        8.9905500000
S       -6.2394500000        7.7226000000       -4.4071000000
H      -10.0408000000       13.9223000000       -5.2075600000
H        9.7554200000       -8.8929500000        9.5051300000
C       -3.4682100000        3.0271500000       -4.1419500000
H      -10.9434000000       12.8913000000       -6.3172900000
C       -5.8626900000        6.3530700000       -5.4719500000
H       -7.2691700000       10.2947000000       -3.3490700000
H        3.8885600000       -4.5119600000        7.1584800000
H       -4.8503300000        3.0408300000       -0.9468090000
C        8.8513300000       -8.2995100000        9.6446700000
C       -1.0353200000        0.5417640000       -1.6435400000
C       -9.1082200000       12.0251000000       -5.5784800000

