%mem=360GB
%nprocshared=40
%Chk=/users/psyche/volatile/gaussian/nanohybrid/chk/D14.chk
# wB97XD/Def2SVP Opt
# SCRF=(SMD,Solvent=Water)
# Integral=(Grid=UltraFineGrid)

Geometry optimisation, Mol: D14

0 1
H       -2.1579700000      -14.4974000000       12.4567000000
C        3.3804000000        7.1454200000      -14.0181000000
C       -0.8139560000       -6.4664900000        8.8315600000
H        0.9534580000       -3.8253000000        5.4063600000
H       -0.0607590000        0.5422850000       -1.0874600000
C        0.7069170000        4.3490400000       -1.8725600000
C       -0.6807960000        0.3822920000        3.3690500000
H        3.5651400000        6.9993200000      -11.0991000000
H       -1.3534000000       -1.7271600000       -0.4181070000
H       -2.0821100000        5.0358700000       -5.9624400000
N        1.4577400000        4.8804900000       -0.9228320000
C       -1.1156400000        5.2063500000       -6.4376500000
C        2.3792900000        9.5192200000      -15.2011000000
C        0.3870700000       -6.8403600000        9.4793600000
H        3.8742800000        6.8513600000       -6.9381000000
H       -1.5847800000        1.9017800000       -2.5898200000
C        2.2675900000        7.8480100000      -13.3740000000
H        4.2809400000        7.4356200000       -8.5493700000
C       -0.2315800000        1.1447000000       -0.1939040000
H       -4.2534100000      -10.9226000000        9.0620500000
H        1.2763300000       -6.2195800000        9.3673600000
C       -0.9038880000      -10.0126000000       11.2124000000
C       -0.6305870000        2.6935400000        2.1339000000
C       -0.0290440000      -10.7706000000       12.0089000000
H       -1.1403800000       -0.2372300000        6.6837300000
C        0.0749740000        4.9502400000       -5.7167100000
C       -1.0859100000        5.7042800000       -7.7428200000
C        0.0066460000        4.3880200000       -4.3292900000
C       -0.9059750000        0.6329920000        4.7339200000
C       -0.5855640000       -2.0169400000        3.8102600000
C       -0.3349130000        6.8324700000      -10.7677000000
C       -1.9156200000       -3.0855300000        7.1311000000
C        0.2553370000        7.2818400000      -11.9519000000
C       -2.2435400000      -10.4275000000       11.0409000000
C        1.0724400000       -1.6084500000        1.0148900000
H        5.0860100000        9.7658800000      -16.9513000000
H       -1.4818500000       -2.8113500000        0.9637710000
H        1.0070700000      -10.4627000000       12.1506000000
H        3.8924800000        4.3766800000       -7.8551100000
H       -3.7449400000      -11.9100000000       11.5234000000
C       -1.9656100000       -7.2700700000        9.0117800000
C       -0.6890770000       -8.7736400000       10.4521000000
C       -0.8469760000       -5.2592400000        7.9449900000
C       -3.5214100000      -10.1479000000        8.8280500000
C       -0.3606830000        0.5249170000        1.0503900000
C       -0.4863820000        3.3120700000        0.8882210000
C       -0.3145000000       -0.9828420000        1.3847900000
S        5.2692200000        5.5105100000      -14.7285000000
C       -0.9781380000       -0.4412280000        5.6259300000
C        1.3197700000        5.2062700000       -6.3408500000
C       -0.2922500000        2.5558100000       -0.2915470000
C        3.4329400000        8.9162800000      -15.8504000000
C       -1.4678600000       -1.7616400000        0.6665070000
C        1.8071200000        8.9943200000      -13.9921000000
H       -4.6916600000       -8.0177100000       10.2615000000
H        1.1273100000       -2.6558400000        1.3160300000
H       -1.4207900000        6.7846600000      -10.6850000000
C       -0.8193960000        3.3219800000       -4.0259900000
C        0.8087170000        4.9375700000       -3.2349100000
S        2.4169000000        6.2961000000       -1.7165600000
H       -3.8637900000       -8.2755700000       11.7946000000
C       -0.5295840000       -0.9475770000        2.9144800000
C        2.5829200000        6.0241200000       -8.5286100000
H        1.2523000000       -1.5646500000       -0.0603770000
C       -0.5684760000        1.2918300000        2.2194300000
N        4.9614900000        7.0163500000      -15.8241000000
H        2.2499800000        4.9998400000       -5.8116200000
C       -1.8954800000       -8.4145600000        9.8092900000
H        3.5068400000       10.3641000000      -17.4599000000
H        4.0371200000        8.7446700000      -17.9198000000
C        3.9656800000        7.6874700000      -15.2705000000
C        3.4518600000        7.1619600000       -7.8947500000
N        1.6238900000        5.9663100000       -3.3941200000
H       -1.0230900000        1.6525000000        5.1017500000
H       -0.5510430000        4.3981000000        0.8297650000
C       -0.1805410000        3.2094200000       -1.6359100000
H       -2.8975900000       -7.0121400000        8.5086800000
C        3.4593800000        4.7514300000       -8.7839400000
H        0.1762930000      -12.5221000000       13.2415000000
H        0.9521170000       -5.7485100000        6.8890800000
H        4.2808600000        4.9683900000       -9.4682500000
H       -3.3913900000      -13.6027000000       13.3304000000
H       -2.7014000000      -10.6199000000        8.2860900000
N       -2.9077600000       -4.3609500000        8.9086200000
H        1.8868100000       -1.0783200000        1.5090900000
H        0.9897140000        9.5591000000      -13.5434000000
C       -2.3233700000      -13.6370000000       13.1130000000
H       -0.7916790000        3.2997900000        3.0252600000
S       -4.0192500000       -2.8630800000        8.6360500000
C       -4.2031600000       -8.7690900000       10.8837000000
C       -0.5028960000      -11.9342000000       12.6235000000
C       -2.7102400000      -11.5920000000       11.6588000000
C       -0.8465950000       -2.9283800000        6.1441900000
C       -1.8382500000      -12.3587000000       12.4609000000
H       -0.3884390000        7.5657500000      -12.7851000000
H        2.8665900000        3.9479200000       -9.2219700000
H        1.3930700000       -8.2354000000       10.7838000000
C        0.4566890000       -7.9770700000       10.2893000000
C        0.1304510000       -3.9057700000        6.1170700000
C        0.4875450000        6.4428000000       -9.6967600000
C        0.1369090000       -5.0336300000        7.0008000000
C       -3.0079600000       -9.4411400000       10.1278000000
C       -0.8137880000       -1.7756000000        5.1862700000
H       -0.4775660000       -3.0397300000        3.4462000000
N       -2.9118100000       -2.2244100000        7.2500600000
C       -1.9208100000       -4.2680000000        8.0338100000
C        4.0423200000        9.4808600000      -17.1122000000
C        0.1552410000        5.9444200000       -8.3563100000
C        1.8934800000        6.5002900000       -9.8283900000
H       -4.9568800000       -9.5061300000       11.1659000000
H       -1.7993800000      -13.8432000000       14.0468000000
C       -0.9019450000        2.7418700000       -2.7185700000
C        2.4799100000        6.9429900000      -11.0162000000
N        3.8866400000        6.0183500000      -13.5485000000
H        2.8571600000        8.0588600000       -7.7196500000
H       -2.4408200000       -1.3349400000        0.9110620000
C        1.6615800000        7.3446900000      -12.0994000000
H       -1.4269700000        2.8699200000       -4.8102300000
H        1.9530500000       10.4398000000      -15.6002000000
H       -3.9992900000       -9.4365400000        8.1527400000
C        1.3535300000        5.6935000000       -7.6495500000
H       -2.0188600000        5.9014400000       -8.2713400000

