%mem=360GB
%nprocshared=40
%Chk=/users/psyche/volatile/gaussian/nanohybrid/chk/D2.chk
# wB97XD/Def2SVP Opt
# SCRF=(SMD,Solvent=Water)
# Integral=(Grid=UltraFineGrid)

Geometry optimisation, Mol: D2

0 1
H        2.8258000000        6.1848200000       11.2749000000
C       -0.0652510000        3.9580800000        3.7179500000
S        4.1151900000        3.0263000000        9.9812100000
C       -4.1603400000        3.5138200000       -4.0005500000
H        6.3704300000        9.1259200000       19.4681000000
H       -6.4539300000        1.6046600000       -7.5000300000
H        7.2212600000       -2.8871100000        4.9250000000
H        6.0233700000       -4.0226900000        4.3220000000
C       -4.2041700000        1.7514600000       -5.5907000000
H       -8.9048600000       -0.2022880000      -13.5770000000
H       -8.4079800000       -6.4402100000      -17.7158000000
C       -1.1472400000        5.9904400000        2.6301000000
C        0.4595390000        1.4398700000        1.9649100000
H       -8.5389500000       -2.7874200000      -13.4736000000
H       -2.4880000000      -11.6103000000      -15.0670000000
C        3.0852900000        5.2852100000       10.7195000000
C        7.0340800000        3.3638200000       15.2541000000
C        4.9443000000        7.4836900000       15.9780000000
C       -5.9879700000       -6.8069400000      -15.5155000000
C       -2.7402300000        1.4424800000       -3.5116800000
O        7.5111100000        3.8400800000       16.2961000000
H        4.1771400000        7.8137200000       15.2803000000
C        6.2588800000        7.6523500000       17.9073000000
C        2.6032700000        0.6412540000        4.9097500000
C        1.4918900000        2.8125500000        5.3415600000
S        4.7338800000       -1.1478300000        4.2571700000
C        0.8235730000        2.8250100000        4.1015500000
H        9.4303800000        0.4503470000       17.1939000000
C       -3.6864400000        2.2483900000       -4.3313200000
C        7.1182600000       -0.7270810000       12.1323000000
C       -2.1391800000       -3.9039900000       -6.8165000000
H       -6.9384600000       -5.9306000000      -18.5315000000
H        2.7313700000       -1.0082100000        7.3004000000
C       -5.0502400000       -4.3033300000      -12.1831000000
C        8.8945300000        1.3367900000       16.8537000000
C       -3.8805700000       -4.3167600000      -10.1132000000
C       -5.5790000000       -6.0830700000      -14.3278000000
S        1.4066000000        4.0923500000        6.5672400000
C        7.4102900000        1.9899200000       14.8177000000
C       -3.8473400000        4.3372700000       -2.7849800000
S        6.8026600000        6.1498300000       17.1871000000
H       -7.5691900000        2.0536400000      -13.5751000000
H       -6.1680000000        1.9416800000      -12.5100000000
C       -3.8119500000        0.4131090000       -6.1140700000
C        2.9670500000        2.0478600000        7.0464500000
S       -5.2503200000        4.0971400000       -5.2501700000
C        2.5637900000        3.2386400000        7.6228700000
H        7.5596600000       -1.7173200000       12.2470000000
C        5.1845900000       -2.3773000000        5.4394000000
H        1.4815800000       -2.2155300000       -0.0161680000
O       -2.3075300000        1.8931700000       -2.4387500000
C        6.9373100000        1.4421800000       13.5619000000
H        4.7720600000        9.1661800000       17.3961000000
H       -6.3954200000        3.3478500000       -7.7705300000
H        9.6114800000        2.1607900000       16.7984000000
C        8.2257100000        1.1158100000       15.5284000000
C       -2.4219500000       -1.6972200000       -5.6197800000
S       -7.0197200000       -4.4252600000      -15.7932000000
C        7.3930000000        0.1507750000       13.3184000000
C       -1.5132900000        7.1464700000        1.7451600000
C        3.4404400000       -1.2074300000        6.5005200000
H       -2.0842300000      -12.0668000000      -13.4129000000
S       -3.1014400000       -8.5635200000      -14.4069000000
C        3.9938500000        4.3219500000       11.1822000000
H       -4.9819400000       -2.5725000000      -10.7784000000
O        5.7105300000        1.7666700000       11.5585000000
C        2.5145300000        5.0036800000        9.4637200000
C        6.8292300000        8.1757100000       19.1933000000
C        5.5418700000        5.3863900000       14.7016000000
C       -6.7462600000       -6.0760800000      -16.3890000000
H       -1.5638500000        3.9658000000        5.2936900000
C       -2.3500500000        0.1007220000       -4.0255700000
C       -5.7915000000        2.4742200000       -7.5245500000
H       -4.3750900000        5.2911400000       -2.7913800000
C       -5.8426000000       -3.8289700000      -13.2712000000
C       -4.5459800000       -5.6414500000      -12.1976000000
C       -7.3184800000       -6.5295500000      -17.6994000000
H       -1.0833900000      -10.9035000000      -14.2817000000
C       -4.2335400000       -7.9410100000      -13.1927000000
C       -2.9723700000      -10.1194000000      -13.5819000000
H        6.0439200000       -0.8532040000       11.9755000000
C       -3.7588200000      -10.1281000000      -12.4529000000
H        6.4407800000       -4.0144600000        6.0346200000
C       -6.3968100000       -2.4464200000      -13.3207000000
O       -4.2537500000        0.0162380000       -7.2040300000
H       -0.6968970000        7.8695400000        1.6637300000
H       -1.7507800000        6.8189800000        0.7287410000
H        4.4957200000       -2.9253400000        7.4259100000
H       -3.8389600000      -10.9843000000      -11.7875000000
S        8.4081800000       -0.3937410000       14.6463000000
H       -1.4989800000       -4.3483600000       -6.0567300000
C       -3.3308100000       -3.8856600000       -8.8394500000
C       -2.5043600000       -4.6107600000       -7.9785500000
H       -2.1657500000       -5.6253000000       -8.1773600000
S       -3.6537800000       -2.2908600000       -8.1607500000
C       -5.0700200000        2.6409500000       -6.2188900000
H       -0.2568230000        2.1114700000        1.4951900000
C        1.0562600000        1.7045900000        3.2479400000
C       -4.7843700000       -6.5559400000      -13.2445000000
H        7.5207000000       -0.2856590000       11.2163000000
C        3.4720500000       -0.4928040000        5.3193100000
S        0.2432980000        4.9594400000        2.2871200000
S       -0.7238270000        0.5451180000       -0.9375330000
H        7.9083300000        8.3358900000       19.1205000000
C        6.0550300000        2.2312100000       12.6570000000
C       -2.6682200000       -2.6079300000       -6.7253200000
H       -2.3844300000        7.6739000000        2.1352400000
C        1.9350800000        0.6566670000        3.6659300000
C        6.0804300000        4.1212500000       14.3969000000
C        4.7142500000        4.4159900000       12.4419000000
H        0.3580370000       -2.6698600000       -2.2768000000
C        0.4132170000       -0.3013820000        0.1103720000
S       -1.3199300000       -2.2644400000       -4.3545700000
H        1.7932700000        5.6651900000        8.9885700000
C       -6.0849000000       -4.7475900000      -14.3147000000
C       -1.7859300000        5.5678400000        3.7734800000
C       -1.1744200000        4.4281800000        4.3897800000
C        0.8472450000        0.2478380000        1.3821600000
C        4.4008700000       -2.2670900000        6.5656100000
C        2.9615200000        3.8070200000        8.8985800000
H       -2.6719900000        6.0522900000        4.1763700000
H       -5.9492700000        1.8958100000      -14.2533000000
C       -1.4694300000       -0.7927690000       -3.3807300000
C       -4.6700200000       -3.5938600000      -10.9870000000
H        8.1651200000        1.6050800000       17.6225000000
C       -0.7066040000       -0.7485600000       -2.1444700000
C        0.1636680000       -1.7603000000       -1.7114900000
C        6.2732200000       -3.3746800000        5.1675300000
S       -3.5790800000       -5.9589600000      -10.7434000000
C       -6.6029200000        1.5662400000      -13.4411000000
S        2.0024200000       -0.6192510000        2.4301900000
H       -7.0670600000       -7.5715600000      -17.8985000000
S       -5.3654500000       -1.0045800000      -13.2805000000
C       -2.8800200000       -0.4047240000       -5.2887000000
C       -7.9207800000       -0.6562880000      -13.4906000000
H       -5.7264800000       -7.8460700000      -15.7026000000
C       -2.1124700000      -11.2303000000      -14.1119000000
C        2.3749300000        1.7678400000        5.7623700000
C       -4.4644000000       -8.9009900000      -12.2303000000
C       -6.7560400000        0.0730480000      -13.4191000000
H       -5.1347000000       -8.7499700000      -11.3876000000
S        4.4581700000        5.8877800000       13.3948000000
C       -7.7194600000       -2.0735900000      -13.4412000000
C        5.2636700000        8.2308900000       17.1397000000
H        3.6898100000        1.3893900000        7.5238300000
H        6.6673500000        7.4773200000       20.0192000000
H       -5.0872200000        2.3113600000       -8.3447800000
C        5.6808100000        6.3057100000       15.8232000000
C        5.6106300000        3.5720700000       13.1271000000
H       -4.1236500000        3.8071000000       -1.8698700000
H       -2.7764100000        4.5462700000       -2.7168700000
C        0.7839630000       -1.5158300000       -0.4708650000

