%mem=360GB
%nprocshared=40
%Chk=/users/psyche/volatile/gaussian/nanohybrid/chk/D3.chk
# wB97XD/Def2SVP Opt
# SCRF=(SMD,Solvent=Water)
# Integral=(Grid=UltraFineGrid)

Geometry optimisation, Mol: D3

0 1
H       20.2206000000       -9.4573400000       -0.9457820000
H        8.3678300000       -2.4143400000       -0.7071710000
C       -1.0084600000        4.5705800000       -0.8204730000
C      -16.8074000000        4.9430800000        1.2894000000
C        9.1771800000       -6.1561700000        0.0090560000
H      -18.2715000000        8.2978400000       -0.0843350000
O       -6.7423700000        6.4327600000       -0.3396840000
O       -0.8564470000        3.1915600000       -0.5314490000
C      -12.8579000000       11.0011000000       -0.7200880000
C      -15.8660000000        7.1052100000        0.6637570000
H      -13.4973000000       11.1496000000       -1.6090700000
H      -13.2784000000       11.5797000000        0.1222040000
H      -11.8615000000       11.4006000000       -0.9454650000
H       17.7169000000       -4.3234400000       -1.7166800000
H       17.5174000000      -10.8117000000       -0.2238640000
C      -15.0911000000        9.3086000000       -0.0061690000
C       11.6334000000       -5.7224400000       -0.4668500000
C      -10.8653000000        1.7574700000        1.3345500000
C       -6.8850600000        7.8145000000       -0.6189240000
C       10.7833000000       -1.7242700000       -1.2349300000
H       -7.2922500000        8.3751800000        0.2414620000
O       16.9451000000       -6.1266200000       -1.1921200000
H      -11.3612000000        7.7836400000       -0.1025360000
H       -4.5717500000       -2.0599300000        0.2841330000
C       -0.2603460000        0.5561170000       -0.0364870000
C      -16.1542000000        8.4596900000        0.3499590000
C       17.6506000000       -8.7429500000       -0.7119080000
C       13.0281000000      -10.9709000000        0.4998520000
H        5.9927200000       -8.2979700000        0.9805890000
H       10.3838000000       -1.1712700000       -0.3660700000
H       13.6987000000      -11.1278000000        1.3637300000
H       14.3319000000       -5.4757400000       -0.9368980000
O      -16.9539000000        6.3248000000        1.0093600000
C        0.1978220000       -0.7131150000        0.1759390000
C      -17.5763000000        8.9765100000        0.4137630000
C       19.6182000000      -10.3191000000       -0.6589340000
H      -15.3188000000       10.3455000000       -0.2459650000
C        4.8717800000        1.3855100000       -1.0216100000
C       -9.9394300000        3.9196200000        0.6780010000
O      -11.0198000000        3.1295100000        1.0143200000
C       18.1627000000       -9.9782500000       -0.5116310000
H       -3.4443800000        3.9417100000       -0.2903320000
C       -9.1393600000        6.1317900000        0.0499390000
H       -1.3946800000        5.1392200000        0.0443680000
H       11.7683000000       -1.3092200000       -1.4802800000
C        6.9800700000       -7.8880900000        0.7363490000
C       -6.1564000000        3.7953900000        0.1681150000
C        1.8889400000       -2.5449400000        0.3222150000
C       16.7382000000       -4.7521400000       -1.4696800000
C      -13.7653000000        8.8333000000       -0.0549460000
H       -5.4361100000        4.5675800000       -0.1046870000
H      -11.8636000000        1.3686700000        1.5696100000
H      -10.4591000000        1.1733100000        0.4893250000
O       -5.1121900000       -0.1173340000        0.8748030000
H       11.4378000000       -7.7765000000        0.0266810000
C       -4.9591200000       -1.4986100000        1.1531100000
C      -11.6169000000        5.7559900000        0.4603890000
H       12.3246000000       -4.9286000000       -0.7525080000
C      -14.5474000000        6.6267100000        0.6154400000
H       13.4320000000      -11.5179000000       -0.3709450000
O      -12.6929000000        9.6306300000       -0.4000560000
C        1.5828900000       -1.1722000000        0.0622320000
C       15.9016000000       -6.9591800000       -0.8444340000
C      -10.2293000000        5.2900800000        0.3916200000
C       13.5238000000       -7.4009200000       -0.3794720000
C       -3.2429300000        2.8924000000       -0.0876900000
H       -1.6695800000        4.7458100000       -1.6880100000
C       16.2436000000       -8.3212200000       -0.5904570000
C        8.5942400000       -3.4590700000       -0.5073280000
H       19.7642000000      -11.0964000000       -1.4153700000
C      -13.4667000000        7.4739300000        0.2570970000
H        1.6463900000       -4.8961400000        1.8193400000
H        5.8630300000        1.7871700000       -1.2646400000
C       15.1969000000       -9.2051500000       -0.2306360000
C       -8.6271900000        3.4292300000        0.6098190000
C       -7.5377200000        4.2694100000        0.2614610000
C       -5.7092500000        2.5217300000        0.3770180000
H      -17.6715000000        9.9560600000       -0.0544650000
H       -5.9548800000       -1.8889200000        1.3954800000
O       10.9712000000       -3.1006600000       -0.9542800000
C       -2.7256400000        0.1828360000        0.4339540000
C        3.2037700000       -3.0228500000        0.2254610000
H        0.4525300000        1.3307600000       -0.3220640000
O        6.7978000000       -6.5112300000        0.4555280000
C       12.1252000000       -6.9788900000       -0.2592030000
H        3.4169000000       -4.0701700000        0.4272920000
H        2.4459500000        0.7282860000       -0.4982500000
H      -16.3975000000        4.3837700000        0.4290290000
H        5.4399400000       -4.6731500000        0.2520320000
C       10.2405000000       -5.2872300000       -0.3501350000
H       -4.2983000000       -1.6801100000        2.0195000000
C        3.9730900000       -0.7962560000       -0.3933730000
H       -6.4279400000        1.7473400000        0.6507820000
C        7.8556600000       -5.6960600000        0.1093040000
H       -5.8824600000        8.2029700000       -0.8361530000
C        9.9154600000       -3.9186200000       -0.6077330000
C       13.8678000000       -8.7644800000       -0.1255060000
C        5.6658900000       -2.6227600000       -0.2446520000
C        0.9849790000       -4.7244800000        0.9514070000
C        4.2794100000       -2.1688600000       -0.1326010000
C        2.6583100000       -0.3188120000       -0.2964030000
H        7.6453700000       -8.0537800000        1.6024000000
H       -0.0124090000        4.9583500000       -1.0665900000
H      -17.9157000000        9.0737700000        1.4494800000
H       -9.3387800000        7.1788100000       -0.1674820000
C       -7.8258600000        5.6428400000       -0.0126650000
H       20.0247000000      -10.7153000000        0.2766850000
O        0.8199010000       -3.3458200000        0.6673890000
H      -14.3375000000        5.5875100000        0.8577060000
H      -12.3317000000        4.9858500000        0.7541250000
C       14.5732000000       -6.5174600000       -0.7396190000
C       -1.9329800000        2.4010800000       -0.1848500000
H        7.3779000000       -8.4428900000       -0.1320180000
C        7.5308800000       -4.3273700000       -0.1483040000
O        5.0406300000        0.0067900000       -0.7392690000
C       -4.3275500000        2.0500000000        0.2700410000
H       -0.5121950000       -1.4909800000        0.4617340000
H       16.3330000000       -4.2064500000       -0.5987550000
H       16.0664000000       -4.5967400000       -2.3327600000
H       18.3407000000       -7.9474000000       -0.9978860000
H       12.0484000000      -11.3971000000        0.7463390000
H        9.4042400000       -7.2009800000        0.2089410000
C       -4.0356200000        0.6741070000        0.5300060000
H       -2.5235800000       -0.8664270000        0.6356060000
C        6.1398300000       -3.8862800000       -0.0331090000
H        4.2092600000        1.5566200000       -1.8889500000
H       15.4399000000      -10.2468000000       -0.0336100000
C      -12.0745000000        7.0129800000        0.1938510000
H        1.3782400000       -5.2855900000        0.0849610000
C       -1.6412600000        1.0255400000        0.0759210000
H      -10.2197000000        1.6042000000        2.2178300000
H        4.4773400000        1.9446700000       -0.1543090000
H       10.1163000000       -1.5614100000       -2.1003000000
H        6.3693400000       -1.8393600000       -0.5295060000
H       -0.0078820000       -5.1221500000        1.1941800000
H       -7.5239300000        7.9995500000       -1.5010800000
H      -17.8083000000        4.5511800000        1.5071600000
H       -8.4279200000        2.3820000000        0.8252550000
O       12.8233000000       -9.5966100000        0.2222550000
H      -16.1668000000        4.7601600000        2.1712600000

