%mem=360GB
%nprocshared=40
%Chk=/users/psyche/volatile/gaussian/nanohybrid/chk/D5.chk
# wB97XD/Def2SVP Opt
# SCRF=(SMD,Solvent=Water)
# Integral=(Grid=UltraFineGrid)

Geometry optimisation, Mol: D5

0 1
C       -0.8409420000        0.3599530000       -9.5919400000
C        0.6887120000       -0.0430900000       -1.4895500000
C       -5.3126200000       -0.0250210000       -0.4978610000
C        3.9073600000       -2.7257400000        6.8464300000
C        2.8987100000        4.1081400000        5.7659600000
C        0.8036390000       -5.8549200000       -8.6751100000
C        0.2025940000       -0.0704480000        0.9163720000
N        5.1168500000        0.4957990000        8.1884100000
C       -6.0673900000       -0.6561350000        4.7292300000
N       -0.7131220000       -0.5385730000      -10.6244000000
C       -0.6458280000       -1.8456900000      -10.3531000000
C       -7.0987400000       -0.7474640000       -1.9894500000
C        2.7688600000        5.4130100000        5.2500700000
C       -2.0096100000       -0.8969400000       -3.8892900000
C        3.8775600000        6.2873800000        5.2642700000
O        1.2051000000       -3.0592500000      -14.8006000000
C        0.3004400000       -2.4497900000      -12.5994000000
C       -2.4592000000       -5.3248200000       -5.1196800000
C       -5.7657100000       -0.8146570000       -1.5784400000
C        5.2398500000        4.5417900000        6.2725900000
C        5.5269500000       -2.3423400000        8.7194800000
C       -4.1617400000        0.3960830000        3.6333100000
C       -0.5925420000       -2.7579000000      -11.5515000000
H       -4.8501600000        0.8831130000        5.6161300000
H       -2.1458300000       -4.1213300000      -10.8781000000
H       -7.6820700000       -2.9898300000        5.4397200000
O       -1.5314000000       -6.0809700000       -5.8861700000
H       -3.3378200000       -5.0198200000       -5.7151400000
C       -0.6345050000       -2.3129900000       -8.9741500000
C        5.1001500000        5.8404600000        5.7679800000
H       -5.8958700000        1.4905100000        0.9496000000
H      -10.1306000000        2.7081400000        0.7735020000
C       -1.3722500000       -4.6919100000      -12.8089000000
C        0.4523090000        5.1017100000        4.5781700000
O        8.9843600000        3.0403300000       10.4061000000
C        6.9880000000        4.4431900000       10.7310000000
H       -8.8556500000       -3.4344100000        4.1732800000
C       -1.1118200000       -4.2264400000       -7.4376400000
C       -1.1486800000        2.1825100000       -7.4673400000
C        3.6039100000        0.0242390000        6.3547900000
C       -3.4306900000       -0.2277000000        1.3068800000
H        9.8789800000        4.8656300000       10.9317000000
C       -0.3869840000       -3.7336500000       -8.5439500000
C       -8.1788100000       -2.6439600000        4.5163500000
H       -0.4282500000       -5.0364900000      -14.7256000000
C        1.1123400000       -0.0526510000       -0.1446560000
H        2.0599400000        3.4144100000        5.7712400000
H        1.1841800000       -4.1858700000       -9.9813800000
H       -3.3471500000        1.1182400000        3.6608500000
C        5.6684700000        2.7330400000        8.8954600000
H        0.6417670000        4.2193600000        3.9430900000
C        0.9642230000        0.5338630000        4.5826400000
C       -0.4793320000       -4.4033100000      -13.8421000000
C       -8.0115800000        0.1053590000       -1.3561800000
C        4.1335600000        3.6662500000        6.2872500000
H       -1.5339000000        1.8662400000      -11.9292000000
H       -2.5851200000       -1.6584700000       -3.3681400000
C        3.0433700000       -2.2793500000        5.8251100000
C        0.6726370000       -0.0575370000        2.3213400000
C        7.0089700000        2.5013800000        9.2475800000
H       -9.8767900000        2.3226300000       -0.9491130000
C        4.9857200000        3.8218400000        9.4839600000
C       -1.2925700000        0.3323770000       -5.7681700000
C        1.9361800000       -0.4477340000        4.5009900000
C       -7.5631500000        0.9149350000       -0.2891460000
H        7.1410400000       -0.8785070000        8.8214500000
C       -1.6346500000       -0.1118820000       -0.7720540000
H        2.1827900000       -0.0273490000        0.0598190000
H       10.7773000000        3.3702700000       11.3023000000
H        2.5028600000       -3.0232100000        5.2392700000
H       -5.0751300000       -1.4862700000       -2.0860900000
H       -2.8046700000       -5.9713800000       -4.3051700000
C       -3.8695900000       -0.1182740000       -0.0764540000
C        7.6751600000        3.3528100000       10.1538000000
C       -1.2038900000       -0.1046920000        0.5967010000
C        4.6375400000       -1.8424400000        7.6523100000
H       -9.0422700000        0.1285870000       -1.7042600000
H        9.3807300000        3.8282600000       12.3121000000
H       -0.3153210000        5.7175800000        4.0958500000
C        6.6995100000       -1.7921300000        9.2080500000
H        0.0614690000        4.7633800000        5.5541800000
C        0.0796700000       -6.3522800000       -7.5903000000
H       -1.9960300000       -4.4257600000       -4.6783300000
N       -2.9745700000       -0.0921990000       -1.0683200000
H        8.2323300000       -2.2495000000       10.7414000000
H        0.2556660000       -7.3605200000       -7.2203300000
H       -6.7081400000       -0.7299880000        5.6055300000
H       -5.5796900000       -1.9719300000        1.6077000000
H        7.8891300000       -4.4375300000       12.1510000000
H        1.4495200000       -0.0223650000       -2.2696200000
H        2.8256800000       -1.9921900000      -13.9946000000
H        1.5631600000       -0.9888790000      -14.7880000000
N       -2.1291900000       -0.1884130000        1.6068300000
H       -1.0380700000        3.7214700000       -8.9753400000
S        1.9798500000       -1.1184800000        2.8655300000
C       -6.2643900000       -1.4644300000        3.5878100000
C       -5.0106500000        0.2629200000        4.7342700000
H        2.6500200000       -2.0074300000      -15.7692000000
C        0.2442510000        0.7392440000        3.3681400000
C        6.9578900000       -4.7012500000       11.6491000000
C        4.2214700000        2.2459000000        6.7740400000
H       -2.7999200000       -1.2319000000       -5.9292800000
H        6.1777100000       -4.7706700000       12.4127000000
S       -0.3422850000        1.0091900000       -4.4400300000
H       -2.0284100000       -5.5573800000      -12.8904000000
C        4.4769800000       -0.4269480000        7.3998800000
N        3.5272400000        1.3589900000        6.0538000000
C       -1.1444200000        0.8215440000       -7.1603600000
H       -7.4389600000       -1.3684000000       -2.8181900000
C        2.8552100000       -0.9204660000        5.5632800000
C       -1.0164100000        2.6460600000       -8.7984000000
C       -9.7288900000        1.9583200000        0.0827130000
H        0.7473770000        1.0822600000        5.4964200000
H       -0.5467970000        1.4786700000        3.2695600000
H        0.9386090000       -1.5739700000      -12.4953000000
C        0.5835960000       -4.5570500000       -9.1527500000
H       -0.7987640000        3.3583300000      -11.3446000000
C        9.7797400000        3.8235700000       11.2828000000
C       -0.8716040000        1.7708400000       -9.8703000000
C       -0.8783110000       -5.5305600000       -6.9567300000
C        0.3623550000       -3.2740400000      -13.7425000000
C       -6.2188200000        0.8462630000        0.1329270000
C        4.9882800000        1.8000800000        7.9264700000
C       -0.7429920000        2.2710100000      -11.2926000000
C       -1.4356200000       -3.8824400000      -11.6681000000
C       -0.9631800000       -0.1127510000       -8.2451800000
H        1.5553900000       -6.4817900000       -9.1534800000
C       -5.4134700000       -1.3286000000        2.4707200000
O       -7.2513100000       -2.4062400000        3.4685900000
H       -1.8451900000       -3.5726300000       -6.9692000000
H        4.0055100000       -3.8013300000        6.9956500000
C       -4.3641000000       -0.3920210000        2.4783300000
C        5.6462000000        4.6559700000       10.3891000000
C       -1.0804600000       -0.0859810000       -3.2616300000
N       -0.8278200000       -1.4489700000       -7.9726500000
C        7.3069300000       -2.5505400000       10.2553000000
H      -10.2991000000        1.0222700000        0.2174720000
C       -2.1146900000       -0.6748130000       -5.2947300000
C        2.0976900000       -1.9542600000      -14.8240000000
C        6.6124000000       -3.6914100000       10.5944000000
H        0.2080060000        1.9654500000      -11.7371000000
H       -8.7818100000       -1.7482500000        4.7474500000
O        1.6100500000        5.9146100000        4.7198100000
C       -0.6641810000       -0.0813900000       -1.8397500000
H       -1.2726400000        2.9173600000       -6.6716500000
S        5.1723200000       -3.8505800000        9.5903300000
O       -8.3547200000        1.7953300000        0.3988970000
H        7.0791400000       -5.7030100000       11.2271000000
H        6.2134300000        4.2119400000        6.6309100000
H        5.9605500000        6.5084700000        5.7633000000
H        3.7742800000        7.2967200000        4.8709900000
H        7.5556200000        1.6675500000        8.8096000000
H        7.4675100000        5.1193900000       11.4356000000
H        5.1096600000        5.4908100000       10.8387000000
H        3.9406800000        4.0100500000        9.2418300000

