%mem=360GB
%nprocshared=40
%Chk=/users/psyche/volatile/gaussian/nanohybrid/chk/D6.chk
# wB97XD/Def2SVP Opt
# SCRF=(SMD,Solvent=Water)
# Integral=(Grid=UltraFineGrid)

Geometry optimisation, Mol: D6

0 1
H      -10.8706000000        6.4993600000      -12.0900000000
C       -0.7563830000       -2.2357700000       -5.5394700000
C       -3.2629500000        0.4051360000       -6.7917200000
S       -6.9685400000        1.8649900000      -14.7614000000
H       -7.1624700000        6.5441300000       -6.2252600000
N        1.1299000000        3.0517000000        8.4073100000
O       -8.1746900000        5.0329900000      -11.1641000000
C       -3.4416500000       -1.2392800000      -11.4003000000
S        3.6753100000        0.6712140000       14.5003000000
C        3.9701800000        1.9476700000       15.6801000000
C       -6.2926000000        2.1434600000      -12.0208000000
H       -5.5489400000        6.7097200000       -5.5494500000
S        9.1560400000       -3.4402200000        9.7192200000
H       -2.0498100000       -2.1349300000      -14.3421000000
H        5.4439400000       -1.8518000000        8.7042300000
C        0.4224380000        4.2450400000        8.8657600000
H        7.4301300000       -1.0005000000       15.6215000000
C        1.2645000000       -5.3350100000       -6.0866100000
C        0.7254860000       -3.6044200000       -4.3127200000
S       -6.3748700000        2.9148000000      -10.4222000000
C       -2.8913100000        3.0348500000        0.8980700000
C       -0.0241660000       -1.2286900000       -1.9580400000
C       -6.4297700000        6.0625600000       -5.5720000000
C       -2.8822900000       -0.9860980000      -12.6374000000
C        1.9132400000        1.3275900000        7.0627400000
C        1.6690500000       -0.7581890000        2.5811700000
C       -0.4103440000       -0.2194860000       -1.0907300000
H        3.2310400000        3.3563900000       17.1223000000
O        2.2724900000        2.5659200000       10.3875000000
C        5.3194500000        2.2017500000       15.7829000000
H       -2.7064900000        0.0168240000      -13.0191000000
H        2.2500600000        1.8969100000       16.9863000000
H       -0.6447940000        4.1810500000        8.6228900000
S        3.4670500000       -0.7297790000        6.9074900000
H       -8.9693200000        2.0078700000      -17.1744000000
H       -6.8492400000        6.0376000000       -4.5658400000
H       -2.0695200000       -4.7541400000      -14.1317000000
C        2.8478000000        2.6159000000       16.4193000000
C        9.5244500000       -2.9519300000       15.8428000000
C       -7.8911000000        3.7469600000      -13.2521000000
H       -3.9353800000        3.1897400000        0.6377030000
C       -0.2953270000       -3.3589800000       -6.4067900000
H       -1.7392500000        6.1350200000        0.8567060000
C        2.5295300000        1.1995700000        8.3463700000
C       -5.8569000000        2.3399000000       -6.1179700000
C       -1.6087300000       -1.1368500000       -5.6526200000
H        2.1653700000        3.1287100000       15.7361000000
C        9.9528400000       -5.3156600000        7.7165700000
C       -5.4420200000        1.0514400000      -12.0018000000
S        0.7129060000        1.2794800000        3.9700800000
C       -8.0748000000        3.0324000000      -15.5067000000
C        0.7713560000        0.3519870000        2.4623300000
H       -5.9701600000        1.3256700000       -5.7421500000
H        0.5386240000        4.3348500000        9.9476300000
H       -3.4565300000       -5.3214200000      -13.2022000000
C        5.4067700000        0.4945800000       14.1588000000
C       -2.7834000000       -3.3362700000      -12.6859000000
C       -0.4638030000       -1.4039500000       -3.3272700000
H       10.5804000000       -2.8053100000       15.5990000000
H        7.2094100000        1.4811400000       14.8754000000
C        1.0853300000       -1.3998200000        0.3303080000
S       -1.6078100000       -0.2718260000       -4.0940700000
C        5.9179600000       -0.4824050000       13.1607000000
O        1.4324800000       -4.1072500000       -3.4370500000
H       -6.7208700000        3.4228000000       -4.3871000000
S        2.3533900000       -4.4466200000        1.0988800000
C       -3.4952300000       -0.3068760000       -9.0465300000
C       -2.5303700000       -4.7428200000      -13.1435000000
H        9.5913200000       -6.1723200000        7.1471200000
C       -8.4734900000        2.9558300000      -16.9476000000
C        6.9321600000       -2.3646700000       11.1555000000
C       -2.0556500000        4.0480800000        1.3120900000
C        2.0198600000        2.3042800000        9.2098500000
S       -2.3484400000       -1.4734300000       -8.3649700000
C        0.1882130000       -0.2887420000        0.2125470000
C        4.3233600000       -6.5058000000        1.2556400000
C        4.2410500000       -0.2754710000        9.5908000000
S        4.1210900000        0.4955070000       11.1886000000
H        5.3568100000       -6.6949400000        1.5481100000
H       10.7858000000       -5.6543100000        8.3372200000
H       10.3608000000       -4.5938300000        7.0023600000
H        9.3982300000       -4.0112300000       16.0827000000
H       -2.2472000000        5.8310400000        2.5112300000
C       -7.0409800000        2.6476600000      -13.1580000000
C       -5.3365900000        2.6343400000       -7.3640500000
C       -9.9708100000        6.7961800000      -12.6477000000
H       -3.4153700000        1.0388600000       -5.9199500000
H        2.9485000000       -1.6165600000        4.1883300000
C        7.5069800000       -5.0166800000        8.4978000000
S       -5.3745700000        4.3873000000       -7.6289900000
H       -5.2718600000        0.4306960000      -12.8795000000
C        3.4254100000        0.1366990000        8.4658200000
H        5.7365600000        2.9556500000       16.4457000000
C       -8.4591800000        3.9543600000      -14.5532000000
C        5.2006400000       -1.2741900000        9.5945300000
C       -6.0934500000        4.6791700000       -6.0465500000
H        7.0855300000       -5.7787600000        7.8464100000
H        5.6370200000       -4.3683300000        9.5011100000
C        2.2613900000       -0.8272060000        3.8886700000
C        1.0212700000        2.5233200000        7.1027900000
C        0.0101840000        0.6178670000        1.3043900000
H       -9.1566600000        3.7643800000      -17.2022000000
H       -9.3319000000        7.3785400000      -11.9760000000
O        0.3122280000        3.0082100000        6.2183600000
H       -3.4157500000        5.7067700000        1.1962800000
S       -3.5133400000       -2.9881800000      -11.1200000000
C        1.8516600000       -1.6615300000        1.4864100000
O      -10.0087000000        5.7046200000      -15.3615000000
S        8.7649200000       -3.3052500000       13.1150000000
C        5.8690300000       -1.4563800000       10.8538000000
H       -1.0980800000        0.5705420000       -1.3864500000
C        7.4373300000       -3.3306200000       10.1447000000
C        2.2903300000        0.3614690000        6.1296800000
H      -10.2766000000        7.4243800000      -13.4876000000
C       -3.9205200000       -0.2594520000      -10.3911000000
C       -4.8218600000        0.7981100000      -10.7296000000
O       -0.5808740000       -3.6184000000       -7.5775300000
C       -2.5103500000       -2.1656600000      -13.3579000000
C        5.3895500000       -0.5497850000       11.8506000000
C        6.9775100000       -1.3884400000       13.4608000000
C       -2.3990000000       -0.6775670000       -6.7767000000
H       -1.8652100000       -5.2758500000      -12.4588000000
C        8.8495000000       -4.7144500000        8.5377600000
C        7.4617400000       -2.2872300000       12.4598000000
H       -2.7925900000        0.8450380000        0.5662870000
H        4.2102600000       -6.8169800000        0.2135940000
C        6.1279500000        1.3840100000       14.9300000000
C       -9.3349500000        5.1668300000      -14.4841000000
C        1.8658500000        0.1788410000        4.7556700000
H        0.8234450000        5.1526100000        8.3933600000
H        3.6832500000       -7.1598400000        1.8542900000
C        6.7118900000       -4.2372000000        9.3981100000
H        9.3080700000       -2.3778100000       16.7443000000
S        1.1306200000       -2.3315200000       -1.1770500000
N       -9.2482000000        5.6306500000      -13.1528000000
H       -7.6036900000        3.0261400000      -17.6065000000
C       -2.3817300000        5.5037300000        1.4767200000
C       -0.1307470000       -2.3837700000       -4.2629200000
C       -2.2609700000        1.7509300000        0.8474180000
C       -0.9334350000        1.7632600000        1.2285900000
C        8.6362600000       -2.5336600000       14.7092000000
C        7.6661700000       -1.5681700000       14.7245000000
C       -8.4036800000        4.8242000000      -12.3571000000
C       -6.2833600000        3.4890600000       -5.3800300000
N        0.5766160000       -4.1361500000       -5.6125100000
H        1.5923100000       -5.9275400000       -5.2293500000
H        0.5934040000       -5.9388200000       -6.7063900000
H        2.1476000000       -5.0789900000       -6.6898000000
C       -3.9103400000        0.6377980000       -8.0530000000
C       -4.8280600000        1.6839500000       -8.3859000000
C       -5.2428400000        1.7385700000       -9.7344300000
C        2.8095600000       -2.7952500000        1.5551000000
C        4.1357800000       -2.7663700000        1.9406700000
C        4.7872500000       -4.0386100000        1.8736100000
C        3.9699600000       -5.0592200000        1.4416300000
H        4.6519200000       -1.8557800000        2.2351500000
H        5.8327600000       -4.1804000000        2.1350500000
S       -0.4483680000        3.4133600000        1.6589100000

