%mem=360GB
%nprocshared=40
%Chk=/users/psyche/volatile/gaussian/nanohybrid/chk/D7.chk
# wB97XD/Def2SVP Opt
# SCRF=(SMD,Solvent=Water)
# Integral=(Grid=UltraFineGrid)

Geometry optimisation, Mol: D7

0 1
N      -10.9202000000       -4.8790100000      -11.4284000000
C        3.5185500000        0.2377890000        5.2883800000
H      -13.6837000000       -5.5451700000      -11.7799000000
C       12.3802000000        5.1510100000       11.4670000000
H        1.9437800000        2.3267700000       -1.9982500000
S        6.0819100000        2.0964400000        5.2440500000
C        6.3536300000        2.8120800000        2.7598900000
C        5.4910300000        2.0577900000        3.5657400000
S        9.8320500000        4.5633100000        5.3684700000
C       -3.5097900000       -1.4338800000       -4.1473100000
C       -7.7757900000       -2.9438500000       -8.2932700000
C        4.3028500000        1.3697700000        3.1075100000
C        2.3654200000        0.0757990000        3.0906700000
H      -10.0331000000       -4.3277900000      -13.2218000000
C       -9.8722400000       -4.3095800000       -7.9150300000
N        2.9204600000        1.4077200000       -0.3427560000
S       13.8330000000        6.3642900000        9.6920900000
H       -1.6194400000       -0.2846070000       -4.0086100000
C       11.4757000000        5.2105000000        7.7199000000
C        2.8423100000        1.7398200000       -1.7574800000
C        4.0012600000        1.8975200000        0.4388190000
H      -11.9024000000       -5.3893100000       -5.3946500000
O       -8.9320300000       -3.6649200000      -11.1703000000
C        7.4372300000        3.3928700000        3.4496900000
H       -5.8747300000       -1.8555500000       -8.1424200000
C        0.8416180000       -0.0376840000       -0.0161860000
O      -12.8656000000       -6.0689000000       -7.3987000000
C       13.4734000000        5.7290300000       12.1768000000
C      -10.9099000000       -4.8831300000      -12.8823000000
C       -8.6597400000       -3.6476300000       -7.4686200000
C        0.0202350000       -0.8454890000        0.7811560000
H      -11.8095000000       -4.4061400000      -13.2966000000
C        9.4989900000        3.8967000000        7.8619200000
C       -2.2582900000       -1.3050700000       -2.1726600000
C       -6.5983700000       -2.7146500000       -6.2622400000
C       -2.3523600000       -0.9150210000       -3.5108100000
H        8.1860900000        4.0049800000        2.9523400000
C      -10.9429000000       -4.9343400000       -5.6550600000
C       15.6043000000        7.1426500000       11.7934000000
C       -9.8942600000       -4.2610900000      -10.6539000000
H       13.5968000000        5.6313800000       13.2525000000
H        0.2346750000       -1.0596400000        1.8281100000
H       15.5610000000        8.2057400000       11.5400000000
S       -3.6462700000       -2.3362400000       -1.7082200000
H      -10.1459000000       -5.5411000000       -5.1993400000
C       -5.5738000000       -2.3619800000       -5.3021800000
C        7.4621300000        3.1196200000        4.8198000000
C        8.4170100000        3.5596800000        5.8134600000
H        3.4410800000        1.1231900000        5.9361600000
C      -11.8897000000       -5.4899600000       -7.8945300000
C       12.4044000000        5.3904900000       10.0992000000
C       14.3574000000        6.4211000000       11.3757000000
S       10.0408000000        3.9515100000        9.5340400000
S       -8.0286200000       -3.6519800000       -5.8060500000
C      -11.5073000000       -5.2309000000       -9.2834300000
C       -1.1133700000       -1.3574300000        0.1179770000
H       -7.9373300000       -2.8119200000       -9.3621500000
C      -10.2734000000       -4.4944000000       -9.2584400000
S        0.1458480000        0.0667960000       -1.6497300000
C        8.4021500000        3.3021900000        7.1859300000
C       -6.6461600000       -2.4235800000       -7.6270800000
H        4.4486500000       -0.2962440000        5.5299700000
H      -10.8546000000       -5.9047900000      -13.2854000000
H       11.6006000000        4.5755400000       11.9618000000
H       12.2451000000        5.8003800000        7.2273300000
H      -10.9093000000       -3.9259000000       -5.2187700000
H       -6.2147000000       -3.3781000000       -3.4647700000
H      -13.7021000000       -6.5380500000      -10.3176000000
H      -12.7815000000       -7.0549500000      -11.7346000000
C       10.3769000000        4.6168400000        7.0390100000
O        4.8981800000        2.6178200000       -0.0374170000
H        7.6338100000        2.7141600000        7.6824400000
H        6.2006000000        2.9430000000        1.6889400000
C      -13.0769000000       -6.1881600000      -11.1355000000
O        1.4750300000       -0.6546950000        3.5632500000
H        2.6775700000       -0.4226430000        5.5157500000
H        2.8588800000        0.8441490000       -2.3949000000
C      -11.8804000000       -5.4584200000      -10.6087000000
N      -10.8529000000       -4.9046100000       -7.1070100000
H        3.7183000000        2.3470300000       -2.0002000000
H       -1.8390900000       -1.9995200000        0.6124150000
N        3.4350800000        0.5807340000        3.8766100000
C       -1.2238000000       -0.9688200000       -1.2194700000
H       15.7566000000        7.0643600000       12.8703000000
H       16.4918000000        6.7343900000       11.3015000000
C       11.4558000000        4.9528800000        9.0894700000
C       -4.3278100000       -2.2241500000       -3.3247700000
C       -5.4843800000       -2.7444700000       -3.9620000000
C        2.0541400000        0.6181710000        0.4272960000
S       -4.1868500000       -1.3292200000       -5.7661200000
C        2.5895100000        0.5920760000        1.7402400000
C        3.7838100000        1.3726900000        1.7867500000

