%mem=360GB
%nprocshared=40
%Chk=/users/psyche/volatile/gaussian/nanohybrid/chk/D8.chk
# wB97XD/Def2SVP Opt
# SCRF=(SMD,Solvent=Water)
# Integral=(Grid=UltraFineGrid)

Geometry optimisation, Mol: D8

0 1
C       -0.7661220000       -2.1691800000        2.9763500000
H        1.6215700000      -17.1210000000       -0.3924470000
C        1.4681700000      -13.6527000000       -0.3509180000
C        0.3988340000      -14.1855000000        2.2209100000
C       -0.4351310000       -9.4816600000        3.5842900000
H        1.2709700000      -16.0624000000       -1.7734500000
H       -2.0659000000       -1.4387200000        6.0592200000
C       -1.6104500000       -3.4360400000        5.3595800000
H        2.8660800000      -16.0265000000       -1.0287800000
C       -1.6763500000       -2.0050400000        5.2114300000
Si       -1.4022800000       -9.6098500000        6.0174800000
C       -0.4382340000        6.6437300000       -0.1880570000
H        2.0354300000       13.1363000000       -9.1839500000
C        1.5688500000       11.8854000000       -7.4268400000
C        1.1782800000       10.1651000000       -5.7627000000
N        1.9398300000      -13.2193000000       -1.5121300000
C       -1.2792100000       -1.3573700000        4.0729000000
H       -1.4166300000       12.8997000000       -6.5772100000
C        0.7751680000       11.1846000000       -4.8999300000
H       -0.4657540000        9.9583300000       -1.0150900000
C        0.4820050000      -12.8670000000        1.8700200000
C       -1.1706200000        2.3580700000        2.8850400000
H       -3.2791600000      -11.0945000000        6.6843900000
C        0.0672770000      -11.7772000000        2.7212900000
H       -0.6363600000       -9.1933700000        8.3433600000
Si        0.9468250000       12.7714000000       -5.8862300000
H       -3.5953200000       -9.4110400000        7.1663900000
H       -1.0966400000       14.0282000000       -5.2399900000
C       -1.2185500000       -7.9046200000        5.2541200000
S       -0.8115500000        0.7529470000        2.3653300000
S        2.1468500000        9.5840700000       -8.4265700000
H        2.9255700000       11.7898000000      -11.3523000000
C       -0.3218880000       -9.8410500000        7.5111200000
H        3.8183600000       10.3452000000      -10.8582000000
H        0.0400340000       11.3549000000       -2.8305400000
C        0.4812520000        9.3303000000       -3.5075300000
N        1.1815900000      -11.3384000000        0.0314130000
H        1.8966700000       14.3284000000       -4.2016100000
C       -1.0773800000       -5.7006500000        4.4911500000
H       -0.3372580000      -10.8820000000        7.8674900000
N       -0.3296810000       -1.7397800000        1.7978100000
C        2.2143100000       13.9283000000       -5.1763900000
N        0.8373820000        6.4065500000       -3.6513800000
C       -0.2977410000        8.8942600000       -1.1898800000
H        2.1444600000       10.2045000000      -11.4250000000
H        0.1021340000        4.5774800000        5.7884600000
H       -1.2346200000        4.3352600000        6.9372200000
C       -1.1454600000       -4.2644800000        4.3741200000
C        0.8251770000      -15.2526000000        1.3472700000
C       -1.3400500000        0.0725190000        3.8916500000
H       -4.1820000000        4.0143900000        5.7782900000
H        0.7236560000       -9.5865900000        7.2659900000
H       -1.8395300000       -6.1806500000        6.4766000000
C       -0.6818600000       13.6168000000       -6.1724600000
C        1.7911100000      -16.1187000000       -0.8031910000
N        0.3040660000        4.8251700000       -1.7260700000
S        0.1565430000       -3.0934000000        0.8895210000
H       -4.0156700000        5.5874200000        4.9633100000
C       -0.6908760000       -8.1207500000        3.9807900000
C       -0.7335640000      -10.4906000000        4.4998700000
C       -3.8146800000        4.5099100000        4.8669800000
C       -0.6969560000       -3.6515100000        3.1300600000
H       -1.9547700000       -3.8501500000        6.3089100000
C       -1.4192800000        4.7719800000        2.9053000000
H        2.4063200000       14.7806000000       -5.8458300000
C       -3.1732600000      -10.0448000000        6.3720900000
C       -0.4449860000      -11.7923000000        4.0000000000
S        0.8883850000        4.7384400000       -3.3215200000
C        2.8281700000       10.8274000000      -10.8260000000
H       -1.0550600000        5.8932100000        6.0962800000
S       -0.4729220000        4.0115300000        0.6273400000
C        0.3812830000       10.7000000000       -3.6207200000
S        0.2008000000      -10.1363000000        2.1196900000
S        1.8538500000      -11.5211000000       -1.5228400000
H        3.1711900000       13.4000000000       -5.0246800000
C        1.3435400000      -15.0307000000        0.1077550000
H       -2.1382800000        0.8862050000        5.7502500000
C        1.0239400000      -12.5471000000        0.5545170000
Si       -2.0103000000        4.1703200000        4.5830800000
C       -1.4346800000       -6.5263400000        5.5352400000
H       -0.0012140000      -14.4746000000        3.1940300000
C       -1.2479300000        5.9609100000        2.1416900000
H       -0.5885130000       14.4417000000       -6.8949200000
H        0.7145690000      -16.2695000000        1.7267200000
H       -0.6166170000      -12.6889000000        4.5795100000
C       -0.9611190000        4.8030200000        5.9794800000
C        1.5940100000       10.5396000000       -7.0892800000
C        0.1773290000        8.4604200000       -2.3980400000
H       -4.4105900000        4.1331500000        4.0179600000
S       -0.4626190000       -6.6318900000        3.1397200000
H       -3.7883800000       -9.9012600000        5.4672000000
C       -0.6008990000        8.0000900000       -0.1023940000
C       -1.6748700000        2.3661100000        4.1858900000
C       -1.7675000000        1.0625800000        4.7498200000
C        0.3838170000        7.0272700000       -2.5685900000
C       -1.0371900000        3.6238600000        2.2108500000
S        1.0734900000        8.6217900000       -4.9988300000
C        0.0710660000        6.1011200000       -1.4412100000
C        2.3456700000       11.0032000000       -9.4486600000
C        1.9986300000       12.1383000000       -8.7706400000
H       -1.4946200000        6.9407800000        2.5270800000
N       -0.2110460000       -4.2711000000        2.0605900000
H       -0.9767990000        8.4516000000        0.8174460000
C       -0.7439980000        5.7242200000        0.8809370000

