%mem=360GB
%nprocshared=40
%Chk=/users/psyche/volatile/gaussian/nanohybrid/chk/D9.chk
# wB97XD/Def2SVP Opt
# SCRF=(SMD,Solvent=Water)
# Integral=(Grid=UltraFineGrid)

Geometry optimisation, Mol: D9

0 1
C        0.3875240000       -2.6311200000       -0.3102500000
N       -0.4078880000        4.1713400000        0.5187360000
H       -2.9547000000       -2.3728500000        1.7580800000
H       -0.3991820000       -7.9401700000       -0.1356960000
H       -2.6794000000       13.2503000000        1.1841300000
C        2.2568900000        1.2655900000       -1.2442100000
H       -0.8037980000      -20.7191000000       -0.7202470000
C       -1.9814900000       -5.0793400000        0.9938270000
C       -1.5363100000       -3.7186200000        0.8009110000
H       -2.6544000000      -16.5226000000        0.6721770000
N        1.0753200000      -14.9719000000       -1.4719700000
C       -3.0850400000       -5.6745700000        1.6413500000
C       -2.2567200000       -7.9104700000        1.0003800000
H        1.3134400000       -2.7135200000       -0.8769050000
C        1.6199800000        3.6976000000       -0.7453930000
C        0.8707680000        6.0780600000       -0.1833490000
C       -1.1478200000       -7.3181600000        0.3546350000
C        0.5129990000       15.9506000000        0.5545640000
C       -1.1759000000       17.9082000000        1.6913100000
H        2.9332900000       15.2206000000       -1.0038800000
H        0.9133460000       -6.5526000000       -1.4513200000
C        2.1469400000       10.6200000000       -0.7514890000
C        2.2873800000       14.4220000000       -0.6400700000
C        2.7077100000        4.2947600000       -1.3865700000
S        0.0594600000        1.4854700000        0.1086640000
H        1.7879300000      -20.2690000000       -3.2693100000
C        1.7808800000       12.0143000000       -0.4522700000
C       -3.4386200000      -10.1339000000        1.5753600000
H        4.1354700000        8.2463900000       -2.0898400000
C        3.2545100000       10.1505000000       -1.4554700000
C       -3.2932900000      -11.5298000000        1.3962100000
S        1.0390200000      -17.7114000000       -1.6276600000
H        1.9912200000       -5.7804600000       -0.2728500000
C       -2.0319500000       -2.4539300000        1.1845000000
C       -0.8486390000      -15.9942000000       -0.3797820000
C       -0.4221950000      -19.7140000000       -0.8829470000
C       -0.0444420000      -14.8394000000       -0.7868430000
H        3.7970200000        6.0404500000       -1.9785100000
C       -1.0218300000       -5.9182800000        0.3517630000
H       -4.0731000000       -7.4983700000        2.1434300000
C        0.6124290000       -0.1432260000       -0.3062920000
C       -1.5134400000       16.5532000000        1.8368900000
C       -0.3246030000       -3.7882300000        0.0498640000
C        0.0007370000       18.2723000000        0.9845070000
C       -2.0100100000      -15.7097000000        0.3391300000
C        0.7475580000      -19.4456000000       -1.5669600000
C       -0.4395320000      -17.3570000000       -0.7169380000
C       -1.3305400000       -1.3082100000        0.8218310000
H        1.3289900000      -21.4564000000       -2.0485800000
H       -2.0204100000      -18.6073000000        0.1487610000
N       -0.0324590000       -5.1236400000       -0.2257620000
C        1.1291200000       14.7224000000        0.1049230000
C        0.6611450000        4.6092900000       -0.1180010000
S       -1.3374400000        5.6993900000        1.1537400000
S        1.1690700000        9.2440700000       -0.2174400000
C        2.2666400000        8.0672900000       -0.9488000000
H       -4.0195900000      -12.2384000000        1.7879800000
C       -1.0874300000      -18.5500000000       -0.4070710000
C       -0.6632280000       15.5796000000        1.2699500000
C       -1.7098300000      -13.2461000000        0.3257160000
C        2.6007900000       13.0932000000       -0.9077400000
H        2.3519500000       -0.9129780000       -1.4052900000
H       -3.0891700000       18.6703000000        2.3862800000
C        1.1346900000       -5.6091500000       -0.9449380000
H        1.4476900000       -4.8914300000       -1.7091600000
H       -1.4924400000       12.4513000000        2.2333200000
C        1.6842700000      -20.4356000000       -2.1934600000
C        1.8019600000       -0.0541440000       -1.0284600000
H       -2.0189800000       19.9092000000        1.7362700000
C        2.9086800000        5.6974600000       -1.4488900000
N       -0.7715270000       14.1892000000        1.2818600000
H        1.7347800000       17.6185000000       -0.1255820000
C        2.0395300000        6.6285800000       -0.8753440000
C        0.6157560000       12.3122000000        0.2918670000
H       -3.8321300000       -5.0571900000        2.1394200000
H       -1.7274400000       -0.3390790000        1.1246100000
C        1.4342900000        2.2516700000       -0.6961560000
H       -3.3495200000      -14.3007000000        1.2417000000
H        0.2512840000       19.3275000000        0.8787490000
H        3.1722500000        1.4743500000       -1.7935600000
H       -2.4172600000       16.2683000000        2.3749700000
C       -2.0473400000       18.9824000000        2.3097700000
C        0.3024610000       13.6559000000        0.5670990000
C        3.3219300000        8.7423500000       -1.5653300000
H       -0.0309110000       11.5099000000        0.6471320000
H        3.5004900000       12.8832000000       -1.4841700000
C       -3.2134100000       -7.0601200000        1.6386500000
C       -2.4225200000      -14.3935000000        0.6770230000
H        3.4572100000        3.6715200000       -1.8730800000
H        4.0155700000       10.7936000000       -1.8907300000
C       -1.8504500000       13.4260000000        1.8891300000
H       -2.2566100000       13.9527000000        2.7573800000
H       -4.2848000000       -9.7121600000        2.1122700000
C       -0.4751020000      -13.4628000000       -0.4335830000
N       -0.0269090000        6.8488200000        0.3997350000
N        0.2907930000      -12.4639000000       -0.8280970000
C       -2.1523400000      -11.9016000000        0.6828910000
S        1.7562000000      -13.2260000000       -1.7645700000
S       -1.2478100000      -10.4525000000        0.2323850000
C       -2.4176800000       -9.3733700000        1.0087000000
C        0.8400480000       17.3147000000        0.4170860000
H        2.6881900000      -20.3689000000       -1.7648600000
C       -0.1147200000       -1.3656100000        0.0722690000
H       -1.7098400000       19.2235000000        3.3224300000

